
This summary file was generated by TurbSim (v2.00.07a-bjj, 14-Jun-2016) on 24-Dec-2023 at 00:31:13.


Runtime Options:

     13428  Random seed #1
    RANLUX  Type of random number generator
         F  Output binary HH turbulence parameters?
         F  Output formatted turbulence parameters?
         F  Output AeroDyn HH files?
         T  Output AeroDyn FF files?
         F  Output BLADED FF files?
         T  Output tower data?
         F  Output formatted FF files?
         F  Output coherent turbulence time step file?
         F  Clockwise rotation when looking downwind?
 0 -  NONE  IEC turbulence models scaled to exact specified standard deviation


Turbine/Model Specifications:

        41  Vertical grid-point matrix dimension
        41  Horizontal grid-point matrix dimension
     0.100  Time step [seconds]
   660.000  Analysis time [seconds]
   600.000  Usable output time [seconds]
    90.000  Hub height [m]
   140.000  Grid height [m]
   140.000  Grid width [m]
     0.000  Vertical flow angle [degrees]
     0.000  Horizontal flow angle [degrees]


Meteorological Boundary Conditions:

    IECKAI  IEC Kaimal spectral model
         1  IEC standard: IEC 61400-1 Ed. 3: 2005
    10.000  Percent turbulence intensity, IEC 61400-1 Ed. 3: 2005
       NTM  IEC Normal Turbulence Model
       N/A  IEC Extreme Turbulence Model (ETM) "c" parameter [m/s]
       PL   Wind profile type
    90.000  Reference height [m]
     9.000  Reference wind speed [m/s]
       N/A  Jet height [m]
     0.150  Power law exponent
     0.030  Surface roughness length [m]


Non-IEC Meteorological Boundary Conditions:

       N/A  Site latitude [degrees]
       N/A  Gradient Richardson number
       N/A  Friction or shear velocity [m/s]
       N/A  Mixing layer depth [m]
       N/A  Mean hub u'w' Reynolds stress
       N/A  Mean hub u'v' Reynolds stress
       N/A  Mean hub v'w' Reynolds stress


Spatial Coherence Models:

       IEC  u-component coherence model
      NONE  v-component coherence model
      NONE  w-component coherence model
(   12.000, 0.353E-03)  u-component coherence parameters
                   N/A  v-component coherence parameters
                   N/A  w-component coherence parameters
       N/A  Coherence exponent


You have requested that the following file(s) be generated:

   turbSimCondition1.bts (AeroDyn/TurbSim full-field wind file)


Turbulence Simulation Scaling Parameter Summary:

   Turbulence model used                            =  IEC Kaimal
   Turbulence characteristic                        =  User-specified
   IEC standard                                     =  IEC 61400-1 Ed. 3: 2005
   Mean wind speed at hub height                    =    9.000 m/s
   Characteristic value of standard deviation       =    0.900 m/s
   Turbulence scale                                 =   42.000 m
   u-component integral scale                       =  340.200 m
   Coherency scale                                  =  340.200 m
   Characteristic value of hub turbulence intensity =   10.000%
   Gradient Richardson number                       =    0.000

   Wind profile type                                =  Power law
   Power law exponent                               =    0.150
   Mean shear across rotor disk                     =    0.019 (m/s)/m
   Assumed rotor diameter                           =  140.000 m
   Surface roughness length                         =    0.030 m

   Nyquist frequency of turbulent wind field        =    5.000 Hz

   Number of time steps in the FFT                  =     6600
   Number of time steps output                      =     6156
   Number of points simulated                       =     1686


Mean Flow Angles:

   Vertical   =   0.0 degrees
   Horizontal =   0.0 degrees

Mean Wind Speed Profile:

   Height    Wind Speed   Horizontal Angle  Vertical Angle  U-comp (X)   V-comp (Y)   W-comp (Z)
     (m)        (m/s)         (degrees)       (degrees)       (m/s)        (m/s)        (m/s)   
   ------    ----------   ----------------  --------------  ----------   ----------   ----------
    160.0        9.81            0.00            0.00          9.81         0.00         0.00
    156.5        9.78            0.00            0.00          9.78         0.00         0.00
    153.0        9.75            0.00            0.00          9.75         0.00         0.00
    149.5        9.71            0.00            0.00          9.71         0.00         0.00
    146.0        9.68            0.00            0.00          9.68         0.00         0.00
    142.5        9.64            0.00            0.00          9.64         0.00         0.00
    139.0        9.61            0.00            0.00          9.61         0.00         0.00
    135.5        9.57            0.00            0.00          9.57         0.00         0.00
    132.0        9.53            0.00            0.00          9.53         0.00         0.00
    128.5        9.49            0.00            0.00          9.49         0.00         0.00
    125.0        9.45            0.00            0.00          9.45         0.00         0.00
    121.5        9.41            0.00            0.00          9.41         0.00         0.00
    118.0        9.37            0.00            0.00          9.37         0.00         0.00
    114.5        9.33            0.00            0.00          9.33         0.00         0.00
    111.0        9.29            0.00            0.00          9.29         0.00         0.00
    107.5        9.24            0.00            0.00          9.24         0.00         0.00
    104.0        9.20            0.00            0.00          9.20         0.00         0.00
    100.5        9.15            0.00            0.00          9.15         0.00         0.00
     97.0        9.10            0.00            0.00          9.10         0.00         0.00
     93.5        9.05            0.00            0.00          9.05         0.00         0.00
     90.0        9.00            0.00            0.00          9.00         0.00         0.00
     86.5        8.95            0.00            0.00          8.95         0.00         0.00
     83.0        8.89            0.00            0.00          8.89         0.00         0.00
     79.5        8.83            0.00            0.00          8.83         0.00         0.00
     76.0        8.77            0.00            0.00          8.77         0.00         0.00
     72.5        8.71            0.00            0.00          8.71         0.00         0.00
     69.0        8.65            0.00            0.00          8.65         0.00         0.00
     65.5        8.58            0.00            0.00          8.58         0.00         0.00
     62.0        8.51            0.00            0.00          8.51         0.00         0.00
     58.5        8.44            0.00            0.00          8.44         0.00         0.00
     55.0        8.36            0.00            0.00          8.36         0.00         0.00
     51.5        8.28            0.00            0.00          8.28         0.00         0.00
     48.0        8.19            0.00            0.00          8.19         0.00         0.00
     44.5        8.10            0.00            0.00          8.10         0.00         0.00
     41.0        8.00            0.00            0.00          8.00         0.00         0.00
     37.5        7.89            0.00            0.00          7.89         0.00         0.00
     34.0        7.78            0.00            0.00          7.78         0.00         0.00
     30.5        7.65            0.00            0.00          7.65         0.00         0.00
     27.0        7.51            0.00            0.00          7.51         0.00         0.00
     23.5        7.36            0.00            0.00          7.36         0.00         0.00
     20.0        7.18            0.00            0.00          7.18         0.00         0.00
     16.5        6.98            0.00            0.00          6.98         0.00         0.00
     13.0        6.73            0.00            0.00          6.73         0.00         0.00
      9.5        6.42            0.00            0.00          6.42         0.00         0.00
      6.0        6.00            0.00            0.00          6.00         0.00         0.00
      2.5        5.26            0.00            0.00          5.26         0.00         0.00


Harvested Random Seeds after Generation of the Random Numbers:

    155090925 K 1
            0 K 2


Hub-Height Simulated Turbulence Statistical Summary:

   Type of Wind        Min (m/s)   Mean (m/s)    Max (m/s)  Sigma (m/s)       TI (%)
   ----------------    ---------   ----------    ---------  -----------       ------
   Longitudinal (u)         6.58         9.00        11.91        0.784        8.714
   Lateral (v)             -2.26        -0.00         2.65        0.700        7.773
   Vertical (w)            -1.42        -0.00         1.76        0.437        4.853
   U component              6.58         9.00        11.91        0.784        8.714
   V component             -2.26        -0.00         2.65        0.700        7.773
   W component             -1.42        -0.00         1.76        0.437        4.853
   Horizontal (U&V)         6.60         9.03        11.93        0.779        8.628
   Total                    6.61         9.04        11.94        0.779        8.622

                       Min Reynolds     Mean Reynolds    Max Reynolds    Correlation
   Product             Stress (m/s)^2   Stress (m/s)^2   Stress (m/s)^2  Coefficient
   ----------------    --------------   --------------   --------------  -----------
   u'w'                     -2.443            -0.011             1.735        -0.032
   u'v'                     -3.484            -0.057             3.506        -0.103
   v'w'                     -2.405             0.009             1.651         0.029


   Friction Velocity (Ustar)  =      0.104 m/s
   Maximum Instantaneous TKE  =      4.627 (m/s)^2
   Maximum Instantaneous CTKE =      1.811 (m/s)^2


Grid Point Variance Summary:

   Y-coord  -70.00  -66.50  -63.00  -59.50  -56.00  -52.50  -49.00  -45.50  -42.00  -38.50  -35.00  -31.50  -28.00  -24.50  -21.00  -17.50  -14.00  -10.50   -7.00   -3.50    0.00    3.50    7.00   10.50   14.00   17.50   21.00   24.50   28.00   31.50   35.00   38.50   42.00   45.50   49.00   52.50   56.00   59.50   63.00   66.50   70.00

   Height   Standard deviation at grid points for the u component:
   160.00    0.985   0.940   0.958   0.969   0.964   0.963   0.945   0.976   0.969   0.960   0.988   0.977   0.983   0.966   0.986   0.991   0.966   0.936   0.893   0.922   0.949   0.946   0.870   0.897   0.902   0.842   0.844   0.816   0.823   0.832   0.828   0.856   0.830   0.809   0.841   0.801   0.790   0.727   0.699   0.693   0.700
   156.50    0.985   0.955   0.931   0.977   0.977   1.034   0.993   1.004   1.005   1.008   0.999   0.983   0.960   0.962   1.015   0.996   0.946   0.944   0.933   0.969   0.964   0.970   0.899   0.885   0.887   0.880   0.847   0.838   0.812   0.786   0.838   0.852   0.852   0.837   0.852   0.823   0.782   0.752   0.697   0.721   0.709
   153.00    0.991   0.972   0.978   0.978   0.965   0.997   0.964   1.000   0.973   0.979   1.005   0.962   0.960   1.020   1.018   0.969   0.976   0.985   0.982   0.960   0.931   0.929   0.884   0.879   0.873   0.863   0.851   0.817   0.835   0.788   0.820   0.823   0.843   0.837   0.835   0.834   0.809   0.788   0.726   0.729   0.761
   149.50    0.992   1.005   1.009   1.022   0.935   0.983   0.987   0.986   0.952   0.981   1.018   0.980   1.008   1.003   1.002   0.981   0.986   0.981   1.004   0.948   0.898   0.944   0.877   0.920   0.862   0.869   0.820   0.837   0.849   0.799   0.819   0.852   0.871   0.836   0.818   0.845   0.830   0.771   0.761   0.783   0.795
   146.00    1.030   0.954   0.980   0.981   0.991   1.005   0.980   1.001   0.958   1.010   1.034   0.998   0.969   1.001   0.995   0.938   0.915   0.969   0.978   0.980   0.908   0.886   0.849   0.866   0.866   0.836   0.814   0.811   0.809   0.835   0.820   0.854   0.875   0.818   0.828   0.817   0.847   0.793   0.745   0.767   0.782
   142.50    1.033   0.990   0.984   0.968   0.996   1.028   0.991   0.971   0.983   1.009   1.031   1.028   1.008   0.960   0.950   0.956   0.916   0.936   0.975   0.945   0.901   0.880   0.841   0.844   0.842   0.802   0.815   0.822   0.823   0.808   0.803   0.784   0.805   0.808   0.825   0.848   0.839   0.795   0.799   0.810   0.785
   139.00    0.999   0.960   0.933   1.009   1.006   1.058   1.036   1.001   0.986   1.024   1.017   1.047   0.982   0.922   0.953   0.910   0.916   0.941   0.918   0.915   0.909   0.831   0.798   0.801   0.774   0.820   0.793   0.739   0.714   0.745   0.759   0.767   0.784   0.817   0.906   0.878   0.837   0.815   0.826   0.781   0.780
   135.50    1.037   1.002   0.936   0.990   0.993   1.039   1.031   1.040   0.993   1.037   1.015   0.966   0.946   0.910   0.943   0.896   0.901   0.913   0.889   0.903   0.899   0.851   0.782   0.781   0.795   0.795   0.770   0.737   0.733   0.731   0.764   0.765   0.792   0.799   0.867   0.866   0.847   0.895   0.834   0.809   0.838
   132.00    0.988   0.953   1.007   0.975   0.999   1.017   1.012   1.013   0.959   0.959   0.966   0.971   0.898   0.883   0.896   0.898   0.870   0.874   0.917   0.884   0.878   0.861   0.850   0.810   0.789   0.733   0.727   0.707   0.732   0.778   0.786   0.779   0.730   0.831   0.849   0.859   0.890   0.899   0.903   0.893   0.861
   128.50    0.983   0.979   0.996   0.942   0.918   0.957   0.997   1.002   0.970   0.938   0.917   0.896   0.880   0.896   0.864   0.866   0.915   0.860   0.919   0.916   0.872   0.878   0.838   0.804   0.777   0.743   0.709   0.685   0.680   0.709   0.765   0.772   0.790   0.833   0.857   0.866   0.944   0.917   0.920   0.947   0.933
   125.00    0.905   0.947   0.901   0.918   0.927   1.000   1.010   1.015   1.016   0.949   0.933   0.908   0.936   0.900   0.871   0.915   0.957   0.908   0.879   0.875   0.860   0.855   0.821   0.808   0.788   0.738   0.709   0.708   0.769   0.785   0.782   0.795   0.788   0.854   0.881   0.916   0.926   0.933   0.941   0.927   0.917
   121.50    0.916   0.906   0.907   0.926   0.941   0.991   0.960   0.979   0.997   0.978   0.926   0.898   0.929   0.922   0.899   0.918   0.930   0.857   0.831   0.825   0.823   0.842   0.798   0.768   0.777   0.743   0.731   0.747   0.808   0.728   0.741   0.769   0.807   0.843   0.869   0.899   0.860   0.925   0.903   0.865   0.852
   118.00    0.911   0.904   0.950   0.915   0.936   0.948   0.958   0.943   0.944   0.944   0.963   0.905   0.938   0.912   0.906   0.908   0.860   0.863   0.823   0.818   0.802   0.821   0.754   0.750   0.773   0.781   0.731   0.755   0.797   0.776   0.771   0.809   0.814   0.810   0.859   0.904   0.899   0.913   0.880   0.880   0.878
   114.50    0.854   0.908   0.944   0.947   0.952   0.951   0.925   0.898   0.911   0.919   0.923   0.893   0.908   0.880   0.917   0.878   0.878   0.878   0.819   0.789   0.820   0.821   0.790   0.756   0.775   0.791   0.770   0.762   0.771   0.783   0.811   0.808   0.841   0.878   0.903   0.917   0.932   0.952   0.883   0.852   0.866
   111.00    0.869   0.922   0.908   0.898   0.950   0.935   0.921   0.903   0.882   0.914   0.926   0.927   0.931   0.888   0.890   0.841   0.880   0.872   0.830   0.817   0.790   0.791   0.760   0.747   0.790   0.817   0.840   0.768   0.774   0.819   0.785   0.825   0.847   0.866   0.890   0.914   0.929   0.953   0.870   0.894   0.868
   107.50    0.900   0.897   0.882   0.915   0.925   0.947   0.933   0.925   0.860   0.928   0.932   0.936   0.912   0.880   0.846   0.850   0.835   0.832   0.827   0.843   0.788   0.741   0.732   0.767   0.835   0.811   0.818   0.819   0.754   0.794   0.770   0.825   0.846   0.846   0.888   0.938   0.957   0.969   0.900   0.914   0.886
   104.00    0.900   0.939   0.894   0.892   0.905   0.936   0.983   0.943   0.900   0.901   0.895   0.860   0.880   0.842   0.819   0.844   0.847   0.822   0.795   0.802   0.802   0.763   0.777   0.814   0.805   0.759   0.823   0.833   0.830   0.790   0.841   0.818   0.832   0.871   0.905   0.924   0.940   0.901   0.887   0.910   0.861
   100.50    0.921   0.933   0.916   0.902   0.933   0.939   0.963   0.898   0.895   0.863   0.849   0.875   0.841   0.835   0.825   0.863   0.866   0.808   0.851   0.808   0.791   0.831   0.824   0.812   0.812   0.801   0.783   0.811   0.802   0.836   0.822   0.845   0.838   0.841   0.874   0.905   0.908   0.878   0.880   0.888   0.936
    97.00    0.919   0.930   0.915   0.913   0.914   0.924   0.942   0.916   0.852   0.835   0.828   0.806   0.811   0.854   0.843   0.857   0.880   0.883   0.832   0.846   0.829   0.812   0.841   0.832   0.804   0.775   0.763   0.768   0.845   0.853   0.853   0.842   0.892   0.901   0.898   0.896   0.924   0.886   0.831   0.899   0.965
    93.50    0.902   0.913   0.866   0.868   0.830   0.864   0.894   0.896   0.869   0.880   0.843   0.786   0.769   0.836   0.854   0.862   0.879   0.876   0.854   0.833   0.834   0.858   0.813   0.825   0.835   0.794   0.804   0.813   0.857   0.904   0.878   0.863   0.921   0.958   0.901   0.910   0.920   0.893   0.874   0.910   0.966
    90.00    0.919   0.906   0.838   0.858   0.854   0.886   0.909   0.892   0.853   0.875   0.853   0.829   0.833   0.821   0.825   0.814   0.835   0.793   0.820   0.808   0.784   0.797   0.772   0.782   0.807   0.833   0.805   0.789   0.862   0.829   0.897   0.884   0.941   0.934   0.952   0.962   0.941   0.954   0.929   0.901   0.947
    86.50    0.891   0.897   0.914   0.911   0.896   0.932   0.955   0.937   0.865   0.884   0.890   0.821   0.785   0.778   0.806   0.778   0.774   0.753   0.777   0.743   0.796   0.795   0.744   0.773   0.757   0.784   0.785   0.749   0.823   0.835   0.851   0.929   0.964   0.944   0.994   0.966   0.939   0.899   0.916   0.921   0.930
    83.00    0.883   0.928   0.908   0.930   0.911   0.955   0.958   0.946   0.886   0.896   0.871   0.835   0.774   0.750   0.731   0.786   0.784   0.734   0.730   0.804   0.817   0.797   0.761   0.773   0.768   0.742   0.764   0.800   0.821   0.835   0.868   0.882   0.937   0.964   0.981   0.967   0.994   0.964   0.921   0.911   0.888
    79.50    0.905   0.912   0.919   0.925   0.909   0.912   0.923   0.938   0.914   0.864   0.824   0.828   0.808   0.762   0.756   0.797   0.770   0.729   0.740   0.758   0.804   0.827   0.790   0.796   0.776   0.739   0.785   0.754   0.750   0.780   0.796   0.883   0.902   0.920   0.925   0.928   0.927   0.933   0.897   0.942   0.884
    76.00    0.886   0.903   0.880   0.901   0.909   0.898   0.911   0.913   0.922   0.871   0.802   0.846   0.819   0.824   0.813   0.779   0.791   0.766   0.769   0.779   0.769   0.810   0.843   0.853   0.822   0.810   0.766   0.749   0.750   0.756   0.748   0.820   0.850   0.874   0.920   0.907   0.823   0.856   0.886   0.875   0.878
    72.50    0.832   0.902   0.914   0.884   0.931   0.918   0.929   0.883   0.875   0.851   0.840   0.843   0.810   0.873   0.825   0.778   0.760   0.803   0.802   0.810   0.846   0.809   0.840   0.881   0.853   0.814   0.788   0.794   0.749   0.750   0.805   0.781   0.792   0.824   0.826   0.836   0.828   0.832   0.861   0.906   0.970
    69.00    0.917   0.913   0.903   0.883   0.924   0.961   0.925   0.851   0.842   0.825   0.840   0.890   0.863   0.814   0.788   0.816   0.822   0.875   0.819   0.859   0.860   0.828   0.882   0.842   0.841   0.808   0.789   0.754   0.750   0.791   0.786   0.764   0.797   0.799   0.822   0.846   0.827   0.841   0.871   0.879   0.946
    65.50    0.903   0.912   0.918   0.912   0.931   0.949   0.971   0.904   0.846   0.896   0.864   0.903   0.885   0.851   0.828   0.870   0.906   0.923   0.879   0.842   0.870   0.906   0.858   0.859   0.836   0.837   0.821   0.769   0.800   0.792   0.771   0.743   0.770   0.756   0.776   0.811   0.835   0.814   0.864   0.869   0.894
    62.00    0.907   0.881   0.900   0.905   0.882   0.903   0.926   0.930   0.916   0.873   0.858   0.888   0.859   0.857   0.857   0.900   0.902   0.920   0.900   0.855   0.926   0.946   0.892   0.863   0.847   0.850   0.826   0.777   0.731   0.758   0.804   0.786   0.781   0.747   0.778   0.764   0.842   0.865   0.874   0.921   0.967
    58.50    0.921   0.882   0.937   0.955   0.906   0.897   0.939   0.926   0.928   0.901   0.898   0.888   0.877   0.865   0.879   0.910   0.904   0.929   0.911   0.890   0.923   0.918   0.923   0.898   0.904   0.891   0.808   0.792   0.804   0.783   0.802   0.786   0.798   0.802   0.801   0.803   0.838   0.848   0.830   0.864   0.883
    55.00    0.898   0.905   0.925   0.920   0.962   0.934   0.951   0.889   0.902   0.910   0.919   0.884   0.893   0.865   0.850   0.872   0.895   0.907   0.918   0.927   0.898   0.896   0.928   0.893   0.899   0.914   0.839   0.801   0.822   0.813   0.820   0.800   0.782   0.795   0.791   0.752   0.809   0.864   0.873   0.873   0.873
    51.50    0.978   0.964   0.971   1.021   0.950   0.969   0.931   0.929   0.888   0.922   0.883   0.892   0.861   0.849   0.831   0.861   0.918   0.900   0.862   0.923   0.908   0.869   0.877   0.859   0.886   0.872   0.854   0.831   0.849   0.855   0.844   0.843   0.774   0.796   0.792   0.751   0.790   0.801   0.857   0.882   0.900
    48.00    1.010   0.979   0.981   1.002   0.984   0.943   0.929   0.905   0.876   0.880   0.824   0.857   0.882   0.904   0.886   0.849   0.890   0.864   0.902   0.900   0.862   0.912   0.915   0.864   0.893   0.935   0.890   0.856   0.876   0.884   0.838   0.831   0.773   0.780   0.751   0.787   0.774   0.817   0.851   0.838   0.852
    44.50    0.975   0.956   0.978   0.993   0.963   0.963   0.930   0.897   0.899   0.873   0.868   0.825   0.840   0.880   0.893   0.911   0.909   0.910   0.913   0.889   0.855   0.937   0.898   0.881   0.932   0.954   0.883   0.858   0.859   0.899   0.862   0.874   0.833   0.779   0.787   0.793   0.759   0.759   0.772   0.807   0.851
    41.00    0.969   0.950   0.985   0.986   0.956   0.936   0.909   0.878   0.905   0.922   0.907   0.867   0.831   0.841   0.894   0.913   0.936   0.953   0.980   0.914   0.910   0.944   0.917   0.883   0.890   0.905   0.909   0.874   0.881   0.885   0.840   0.833   0.851   0.848   0.825   0.790   0.762   0.790   0.771   0.772   0.772
    37.50    0.945   0.931   0.929   0.902   0.939   0.926   0.905   0.916   0.940   0.943   0.894   0.868   0.885   0.928   0.946   0.936   0.937   0.954   1.003   1.005   0.994   0.929   0.916   0.914   0.906   0.862   0.876   0.907   0.887   0.897   0.889   0.815   0.837   0.899   0.812   0.752   0.807   0.795   0.742   0.754   0.753
    34.00    0.936   0.937   0.988   0.939   0.926   0.956   0.951   0.957   0.974   0.938   0.851   0.874   0.953   0.989   0.980   0.980   0.958   1.023   1.034   0.997   0.929   0.943   0.876   0.916   0.907   0.912   0.913   0.913   0.928   0.895   0.908   0.852   0.884   0.880   0.850   0.805   0.792   0.759   0.757   0.732   0.722
    30.50    0.925   0.916   0.943   0.936   0.938   0.936   0.960   0.936   0.938   0.948   0.914   0.907   0.931   0.944   0.976   0.967   0.970   1.011   1.038   1.020   0.934   0.934   0.941   0.915   0.920   0.973   0.949   0.908   0.952   0.934   0.940   0.909   0.883   0.900   0.880   0.853   0.831   0.809   0.792   0.788   0.795
    27.00    0.891   0.873   0.841   0.888   0.922   0.927   0.954   0.940   0.935   0.941   0.901   0.917   0.913   0.939   0.964   0.932   0.962   0.985   1.033   0.994   0.976   0.960   0.953   0.921   0.955   0.920   0.968   0.960   0.980   0.991   0.968   0.964   0.935   0.891   0.883   0.885   0.815   0.826   0.866   0.831   0.799
    23.50    0.841   0.794   0.850   0.825   0.857   0.940   0.938   0.962   0.932   0.931   0.885   0.877   0.916   0.893   0.944   0.979   0.983   0.934   0.978   0.999   0.963   0.986   1.003   0.974   0.938   0.910   0.943   0.982   0.978   1.024   1.014   0.989   0.946   0.934   0.905   0.887   0.851   0.810   0.816   0.801   0.810
    20.00    0.848   0.807   0.800   0.842   0.897   0.924   0.877   0.892   0.930   0.957   0.873   0.876   0.899   0.931   0.935   0.976   0.975   0.963   0.955   0.938   0.959   0.959   0.994   0.997   0.951   0.973   0.955   0.998   1.033   1.050   1.026   0.970   0.957   0.993   0.908   0.892   0.862   0.823   0.804   0.796   0.835

   Height   Standard deviation at grid points for the v component:
   160.00    0.700   0.700   0.700   0.700   0.700   0.700   0.700   0.700   0.700   0.700   0.700   0.700   0.700   0.700   0.700   0.700   0.700   0.700   0.700   0.700   0.700   0.700   0.700   0.700   0.700   0.700   0.700   0.700   0.700   0.700   0.700   0.700   0.700   0.700   0.700   0.700   0.700   0.700   0.700   0.700   0.700
   156.50    0.700   0.700   0.700   0.700   0.700   0.700   0.700   0.700   0.700   0.700   0.700   0.700   0.700   0.700   0.700   0.700   0.700   0.700   0.700   0.700   0.700   0.700   0.700   0.700   0.700   0.700   0.700   0.700   0.700   0.700   0.700   0.700   0.700   0.700   0.700   0.700   0.700   0.700   0.700   0.700   0.700
   153.00    0.700   0.700   0.700   0.700   0.700   0.700   0.700   0.700   0.700   0.700   0.700   0.700   0.700   0.700   0.700   0.700   0.700   0.700   0.700   0.700   0.700   0.700   0.700   0.700   0.700   0.700   0.700   0.700   0.700   0.700   0.700   0.700   0.700   0.700   0.700   0.700   0.700   0.700   0.700   0.700   0.700
   149.50    0.700   0.700   0.700   0.700   0.700   0.700   0.700   0.700   0.700   0.700   0.700   0.700   0.700   0.700   0.700   0.700   0.700   0.700   0.700   0.700   0.700   0.700   0.700   0.700   0.700   0.700   0.700   0.700   0.700   0.700   0.700   0.700   0.700   0.700   0.700   0.700   0.700   0.700   0.700   0.700   0.700
   146.00    0.700   0.700   0.700   0.700   0.700   0.700   0.700   0.700   0.700   0.700   0.700   0.700   0.700   0.700   0.700   0.700   0.700   0.700   0.700   0.700   0.700   0.700   0.700   0.700   0.700   0.700   0.700   0.700   0.700   0.700   0.700   0.700   0.700   0.700   0.700   0.700   0.700   0.700   0.700   0.700   0.700
   142.50    0.700   0.700   0.700   0.700   0.700   0.700   0.700   0.700   0.700   0.700   0.700   0.700   0.700   0.700   0.700   0.700   0.700   0.700   0.700   0.700   0.700   0.700   0.700   0.700   0.700   0.700   0.700   0.700   0.700   0.700   0.700   0.700   0.700   0.700   0.700   0.700   0.700   0.700   0.700   0.700   0.700
   139.00    0.700   0.700   0.700   0.700   0.700   0.700   0.700   0.700   0.700   0.700   0.700   0.700   0.700   0.700   0.700   0.700   0.700   0.700   0.700   0.700   0.700   0.700   0.700   0.700   0.700   0.700   0.700   0.700   0.700   0.700   0.700   0.700   0.700   0.700   0.700   0.700   0.700   0.700   0.700   0.700   0.700
   135.50    0.700   0.700   0.700   0.700   0.700   0.700   0.700   0.700   0.700   0.700   0.700   0.700   0.700   0.700   0.700   0.700   0.700   0.700   0.700   0.700   0.700   0.700   0.700   0.700   0.700   0.700   0.700   0.700   0.700   0.700   0.700   0.700   0.700   0.700   0.700   0.700   0.700   0.700   0.700   0.700   0.700
   132.00    0.700   0.700   0.700   0.700   0.700   0.700   0.700   0.700   0.700   0.700   0.700   0.700   0.700   0.700   0.700   0.700   0.700   0.700   0.700   0.700   0.700   0.700   0.700   0.700   0.700   0.700   0.700   0.700   0.700   0.700   0.700   0.700   0.700   0.700   0.700   0.700   0.700   0.700   0.700   0.700   0.700
   128.50    0.700   0.700   0.700   0.700   0.700   0.700   0.700   0.700   0.700   0.700   0.700   0.700   0.700   0.700   0.700   0.700   0.700   0.700   0.700   0.700   0.700   0.700   0.700   0.700   0.700   0.700   0.700   0.700   0.700   0.700   0.700   0.700   0.700   0.700   0.700   0.700   0.700   0.700   0.700   0.700   0.700
   125.00    0.700   0.700   0.700   0.700   0.700   0.700   0.700   0.700   0.700   0.700   0.700   0.700   0.700   0.700   0.700   0.700   0.700   0.700   0.700   0.700   0.700   0.700   0.700   0.700   0.700   0.700   0.700   0.700   0.700   0.700   0.700   0.700   0.700   0.700   0.700   0.700   0.700   0.700   0.700   0.700   0.700
   121.50    0.700   0.700   0.700   0.700   0.700   0.700   0.700   0.700   0.700   0.700   0.700   0.700   0.700   0.700   0.700   0.700   0.700   0.700   0.700   0.700   0.700   0.700   0.700   0.700   0.700   0.700   0.700   0.700   0.700   0.700   0.700   0.700   0.700   0.700   0.700   0.700   0.700   0.700   0.700   0.700   0.700
   118.00    0.700   0.700   0.700   0.700   0.700   0.700   0.700   0.700   0.700   0.700   0.700   0.700   0.700   0.700   0.700   0.700   0.700   0.700   0.700   0.700   0.700   0.700   0.700   0.700   0.700   0.700   0.700   0.700   0.700   0.700   0.700   0.700   0.700   0.700   0.700   0.700   0.700   0.700   0.700   0.700   0.700
   114.50    0.700   0.700   0.700   0.700   0.700   0.700   0.700   0.700   0.700   0.700   0.700   0.700   0.700   0.700   0.700   0.700   0.700   0.700   0.700   0.700   0.700   0.700   0.700   0.700   0.700   0.700   0.700   0.700   0.700   0.700   0.700   0.700   0.700   0.700   0.700   0.700   0.700   0.700   0.700   0.700   0.700
   111.00    0.700   0.700   0.700   0.700   0.700   0.700   0.700   0.700   0.700   0.700   0.700   0.700   0.700   0.700   0.700   0.700   0.700   0.700   0.700   0.700   0.700   0.700   0.700   0.700   0.700   0.700   0.700   0.700   0.700   0.700   0.700   0.700   0.700   0.700   0.700   0.700   0.700   0.700   0.700   0.700   0.700
   107.50    0.700   0.700   0.700   0.700   0.700   0.700   0.700   0.700   0.700   0.700   0.700   0.700   0.700   0.700   0.700   0.700   0.700   0.700   0.700   0.700   0.700   0.700   0.700   0.700   0.700   0.700   0.700   0.700   0.700   0.700   0.700   0.700   0.700   0.700   0.700   0.700   0.700   0.700   0.700   0.700   0.700
   104.00    0.700   0.700   0.700   0.700   0.700   0.700   0.700   0.700   0.700   0.700   0.700   0.700   0.700   0.700   0.700   0.700   0.700   0.700   0.700   0.700   0.700   0.700   0.700   0.700   0.700   0.700   0.700   0.700   0.700   0.700   0.700   0.700   0.700   0.700   0.700   0.700   0.700   0.700   0.700   0.700   0.700
   100.50    0.700   0.700   0.700   0.700   0.700   0.700   0.700   0.700   0.700   0.700   0.700   0.700   0.700   0.700   0.700   0.700   0.700   0.700   0.700   0.700   0.700   0.700   0.700   0.700   0.700   0.700   0.700   0.700   0.700   0.700   0.700   0.700   0.700   0.700   0.700   0.700   0.700   0.700   0.700   0.700   0.700
    97.00    0.700   0.700   0.700   0.700   0.700   0.700   0.700   0.700   0.700   0.700   0.700   0.700   0.700   0.700   0.700   0.700   0.700   0.700   0.700   0.700   0.700   0.700   0.700   0.700   0.700   0.700   0.700   0.700   0.700   0.700   0.700   0.700   0.700   0.700   0.700   0.700   0.700   0.700   0.700   0.700   0.700
    93.50    0.700   0.700   0.700   0.700   0.700   0.700   0.700   0.700   0.700   0.700   0.700   0.700   0.700   0.700   0.700   0.700   0.700   0.700   0.700   0.700   0.700   0.700   0.700   0.700   0.700   0.700   0.700   0.700   0.700   0.700   0.700   0.700   0.700   0.700   0.700   0.700   0.700   0.700   0.700   0.700   0.700
    90.00    0.700   0.700   0.700   0.700   0.700   0.700   0.700   0.700   0.700   0.700   0.700   0.700   0.700   0.700   0.700   0.700   0.700   0.700   0.700   0.700   0.700   0.700   0.700   0.700   0.700   0.700   0.700   0.700   0.700   0.700   0.700   0.700   0.700   0.700   0.700   0.700   0.700   0.700   0.700   0.700   0.700
    86.50    0.700   0.700   0.700   0.700   0.700   0.700   0.700   0.700   0.700   0.700   0.700   0.700   0.700   0.700   0.700   0.700   0.700   0.700   0.700   0.700   0.700   0.700   0.700   0.700   0.700   0.700   0.700   0.700   0.700   0.700   0.700   0.700   0.700   0.700   0.700   0.700   0.700   0.700   0.700   0.700   0.700
    83.00    0.700   0.700   0.700   0.700   0.700   0.700   0.700   0.700   0.700   0.700   0.700   0.700   0.700   0.700   0.700   0.700   0.700   0.700   0.700   0.700   0.700   0.700   0.700   0.700   0.700   0.700   0.700   0.700   0.700   0.700   0.700   0.700   0.700   0.700   0.700   0.700   0.700   0.700   0.700   0.700   0.700
    79.50    0.700   0.700   0.700   0.700   0.700   0.700   0.700   0.700   0.700   0.700   0.700   0.700   0.700   0.700   0.700   0.700   0.700   0.700   0.700   0.700   0.700   0.700   0.700   0.700   0.700   0.700   0.700   0.700   0.700   0.700   0.700   0.700   0.700   0.700   0.700   0.700   0.700   0.700   0.700   0.700   0.700
    76.00    0.700   0.700   0.700   0.700   0.700   0.700   0.700   0.700   0.700   0.700   0.700   0.700   0.700   0.700   0.700   0.700   0.700   0.700   0.700   0.700   0.700   0.700   0.700   0.700   0.700   0.700   0.700   0.700   0.700   0.700   0.700   0.700   0.700   0.700   0.700   0.700   0.700   0.700   0.700   0.700   0.700
    72.50    0.700   0.700   0.700   0.700   0.700   0.700   0.700   0.700   0.700   0.700   0.700   0.700   0.700   0.700   0.700   0.700   0.700   0.700   0.700   0.700   0.700   0.700   0.700   0.700   0.700   0.700   0.700   0.700   0.700   0.700   0.700   0.700   0.700   0.700   0.700   0.700   0.700   0.700   0.700   0.700   0.700
    69.00    0.700   0.700   0.700   0.700   0.700   0.700   0.700   0.700   0.700   0.700   0.700   0.700   0.700   0.700   0.700   0.700   0.700   0.700   0.700   0.700   0.700   0.700   0.700   0.700   0.700   0.700   0.700   0.700   0.700   0.700   0.700   0.700   0.700   0.700   0.700   0.700   0.700   0.700   0.700   0.700   0.700
    65.50    0.700   0.700   0.700   0.700   0.700   0.700   0.700   0.700   0.700   0.700   0.700   0.700   0.700   0.700   0.700   0.700   0.700   0.700   0.700   0.700   0.700   0.700   0.700   0.700   0.700   0.700   0.700   0.700   0.700   0.700   0.700   0.700   0.700   0.700   0.700   0.700   0.700   0.700   0.700   0.700   0.700
    62.00    0.700   0.700   0.700   0.700   0.700   0.700   0.700   0.700   0.700   0.700   0.700   0.700   0.700   0.700   0.700   0.700   0.700   0.700   0.700   0.700   0.700   0.700   0.700   0.700   0.700   0.700   0.700   0.700   0.700   0.700   0.700   0.700   0.700   0.700   0.700   0.700   0.700   0.700   0.700   0.700   0.700
    58.50    0.700   0.700   0.700   0.700   0.700   0.700   0.700   0.700   0.700   0.700   0.700   0.700   0.700   0.700   0.700   0.700   0.700   0.700   0.700   0.700   0.700   0.700   0.700   0.700   0.700   0.700   0.700   0.700   0.700   0.700   0.700   0.700   0.700   0.700   0.700   0.700   0.700   0.700   0.700   0.700   0.700
    55.00    0.700   0.700   0.700   0.700   0.700   0.700   0.700   0.700   0.700   0.700   0.700   0.700   0.700   0.700   0.700   0.700   0.700   0.700   0.700   0.700   0.700   0.700   0.700   0.700   0.700   0.700   0.700   0.700   0.700   0.700   0.700   0.700   0.700   0.700   0.700   0.700   0.700   0.700   0.700   0.700   0.700
    51.50    0.700   0.700   0.700   0.700   0.700   0.700   0.700   0.700   0.700   0.700   0.700   0.700   0.700   0.700   0.700   0.700   0.700   0.700   0.700   0.700   0.700   0.700   0.700   0.700   0.700   0.700   0.700   0.700   0.700   0.700   0.700   0.700   0.700   0.700   0.700   0.700   0.700   0.700   0.700   0.700   0.700
    48.00    0.700   0.700   0.700   0.700   0.700   0.700   0.700   0.700   0.700   0.700   0.700   0.700   0.700   0.700   0.700   0.700   0.700   0.700   0.700   0.700   0.700   0.700   0.700   0.700   0.700   0.700   0.700   0.700   0.700   0.700   0.700   0.700   0.700   0.700   0.700   0.700   0.700   0.700   0.700   0.700   0.700
    44.50    0.700   0.700   0.700   0.700   0.700   0.700   0.700   0.700   0.700   0.700   0.700   0.700   0.700   0.700   0.700   0.700   0.700   0.700   0.700   0.700   0.700   0.700   0.700   0.700   0.700   0.700   0.700   0.700   0.700   0.700   0.700   0.700   0.700   0.700   0.700   0.700   0.700   0.700   0.700   0.700   0.700
    41.00    0.700   0.700   0.700   0.700   0.700   0.700   0.700   0.700   0.700   0.700   0.700   0.700   0.700   0.700   0.700   0.700   0.700   0.700   0.700   0.700   0.700   0.700   0.700   0.700   0.700   0.700   0.700   0.700   0.700   0.700   0.700   0.700   0.700   0.700   0.700   0.700   0.700   0.700   0.700   0.700   0.700
    37.50    0.700   0.700   0.700   0.700   0.700   0.700   0.700   0.700   0.700   0.700   0.700   0.700   0.700   0.700   0.700   0.700   0.700   0.700   0.700   0.700   0.700   0.700   0.700   0.700   0.700   0.700   0.700   0.700   0.700   0.700   0.700   0.700   0.700   0.700   0.700   0.700   0.700   0.700   0.700   0.700   0.700
    34.00    0.700   0.700   0.700   0.700   0.700   0.700   0.700   0.700   0.700   0.700   0.700   0.700   0.700   0.700   0.700   0.700   0.700   0.700   0.700   0.700   0.700   0.700   0.700   0.700   0.700   0.700   0.700   0.700   0.700   0.700   0.700   0.700   0.700   0.700   0.700   0.700   0.700   0.700   0.700   0.700   0.700
    30.50    0.700   0.700   0.700   0.700   0.700   0.700   0.700   0.700   0.700   0.700   0.700   0.700   0.700   0.700   0.700   0.700   0.700   0.700   0.700   0.700   0.700   0.700   0.700   0.700   0.700   0.700   0.700   0.700   0.700   0.700   0.700   0.700   0.700   0.700   0.700   0.700   0.700   0.700   0.700   0.700   0.700
    27.00    0.700   0.700   0.700   0.700   0.700   0.700   0.700   0.700   0.700   0.700   0.700   0.700   0.700   0.700   0.700   0.700   0.700   0.700   0.700   0.700   0.700   0.700   0.700   0.700   0.700   0.700   0.700   0.700   0.700   0.700   0.700   0.700   0.700   0.700   0.700   0.700   0.700   0.700   0.700   0.700   0.700
    23.50    0.700   0.700   0.700   0.700   0.700   0.700   0.700   0.700   0.700   0.700   0.700   0.700   0.700   0.700   0.700   0.700   0.700   0.700   0.700   0.700   0.700   0.700   0.700   0.700   0.700   0.700   0.700   0.700   0.700   0.700   0.700   0.700   0.700   0.700   0.700   0.700   0.700   0.700   0.700   0.700   0.700
    20.00    0.700   0.700   0.700   0.700   0.700   0.700   0.700   0.700   0.700   0.700   0.700   0.700   0.700   0.700   0.700   0.700   0.700   0.700   0.700   0.700   0.700   0.700   0.700   0.700   0.700   0.700   0.700   0.700   0.700   0.700   0.700   0.700   0.700   0.700   0.700   0.700   0.700   0.700   0.700   0.700   0.700

   Height   Standard deviation at grid points for the w component:
   160.00    0.437   0.437   0.437   0.437   0.437   0.437   0.437   0.437   0.437   0.437   0.437   0.437   0.437   0.437   0.437   0.437   0.437   0.437   0.437   0.437   0.437   0.437   0.437   0.437   0.437   0.437   0.437   0.437   0.437   0.437   0.437   0.437   0.437   0.437   0.437   0.437   0.437   0.437   0.437   0.437   0.437
   156.50    0.437   0.437   0.437   0.437   0.437   0.437   0.437   0.437   0.437   0.437   0.437   0.437   0.437   0.437   0.437   0.437   0.437   0.437   0.437   0.437   0.437   0.437   0.437   0.437   0.437   0.437   0.437   0.437   0.437   0.437   0.437   0.437   0.437   0.437   0.437   0.437   0.437   0.437   0.437   0.437   0.437
   153.00    0.437   0.437   0.437   0.437   0.437   0.437   0.437   0.437   0.437   0.437   0.437   0.437   0.437   0.437   0.437   0.437   0.437   0.437   0.437   0.437   0.437   0.437   0.437   0.437   0.437   0.437   0.437   0.437   0.437   0.437   0.437   0.437   0.437   0.437   0.437   0.437   0.437   0.437   0.437   0.437   0.437
   149.50    0.437   0.437   0.437   0.437   0.437   0.437   0.437   0.437   0.437   0.437   0.437   0.437   0.437   0.437   0.437   0.437   0.437   0.437   0.437   0.437   0.437   0.437   0.437   0.437   0.437   0.437   0.437   0.437   0.437   0.437   0.437   0.437   0.437   0.437   0.437   0.437   0.437   0.437   0.437   0.437   0.437
   146.00    0.437   0.437   0.437   0.437   0.437   0.437   0.437   0.437   0.437   0.437   0.437   0.437   0.437   0.437   0.437   0.437   0.437   0.437   0.437   0.437   0.437   0.437   0.437   0.437   0.437   0.437   0.437   0.437   0.437   0.437   0.437   0.437   0.437   0.437   0.437   0.437   0.437   0.437   0.437   0.437   0.437
   142.50    0.437   0.437   0.437   0.437   0.437   0.437   0.437   0.437   0.437   0.437   0.437   0.437   0.437   0.437   0.437   0.437   0.437   0.437   0.437   0.437   0.437   0.437   0.437   0.437   0.437   0.437   0.437   0.437   0.437   0.437   0.437   0.437   0.437   0.437   0.437   0.437   0.437   0.437   0.437   0.437   0.437
   139.00    0.437   0.437   0.437   0.437   0.437   0.437   0.437   0.437   0.437   0.437   0.437   0.437   0.437   0.437   0.437   0.437   0.437   0.437   0.437   0.437   0.437   0.437   0.437   0.437   0.437   0.437   0.437   0.437   0.437   0.437   0.437   0.437   0.437   0.437   0.437   0.437   0.437   0.437   0.437   0.437   0.437
   135.50    0.437   0.437   0.437   0.437   0.437   0.437   0.437   0.437   0.437   0.437   0.437   0.437   0.437   0.437   0.437   0.437   0.437   0.437   0.437   0.437   0.437   0.437   0.437   0.437   0.437   0.437   0.437   0.437   0.437   0.437   0.437   0.437   0.437   0.437   0.437   0.437   0.437   0.437   0.437   0.437   0.437
   132.00    0.437   0.437   0.437   0.437   0.437   0.437   0.437   0.437   0.437   0.437   0.437   0.437   0.437   0.437   0.437   0.437   0.437   0.437   0.437   0.437   0.437   0.437   0.437   0.437   0.437   0.437   0.437   0.437   0.437   0.437   0.437   0.437   0.437   0.437   0.437   0.437   0.437   0.437   0.437   0.437   0.437
   128.50    0.437   0.437   0.437   0.437   0.437   0.437   0.437   0.437   0.437   0.437   0.437   0.437   0.437   0.437   0.437   0.437   0.437   0.437   0.437   0.437   0.437   0.437   0.437   0.437   0.437   0.437   0.437   0.437   0.437   0.437   0.437   0.437   0.437   0.437   0.437   0.437   0.437   0.437   0.437   0.437   0.437
   125.00    0.437   0.437   0.437   0.437   0.437   0.437   0.437   0.437   0.437   0.437   0.437   0.437   0.437   0.437   0.437   0.437   0.437   0.437   0.437   0.437   0.437   0.437   0.437   0.437   0.437   0.437   0.437   0.437   0.437   0.437   0.437   0.437   0.437   0.437   0.437   0.437   0.437   0.437   0.437   0.437   0.437
   121.50    0.437   0.437   0.437   0.437   0.437   0.437   0.437   0.437   0.437   0.437   0.437   0.437   0.437   0.437   0.437   0.437   0.437   0.437   0.437   0.437   0.437   0.437   0.437   0.437   0.437   0.437   0.437   0.437   0.437   0.437   0.437   0.437   0.437   0.437   0.437   0.437   0.437   0.437   0.437   0.437   0.437
   118.00    0.437   0.437   0.437   0.437   0.437   0.437   0.437   0.437   0.437   0.437   0.437   0.437   0.437   0.437   0.437   0.437   0.437   0.437   0.437   0.437   0.437   0.437   0.437   0.437   0.437   0.437   0.437   0.437   0.437   0.437   0.437   0.437   0.437   0.437   0.437   0.437   0.437   0.437   0.437   0.437   0.437
   114.50    0.437   0.437   0.437   0.437   0.437   0.437   0.437   0.437   0.437   0.437   0.437   0.437   0.437   0.437   0.437   0.437   0.437   0.437   0.437   0.437   0.437   0.437   0.437   0.437   0.437   0.437   0.437   0.437   0.437   0.437   0.437   0.437   0.437   0.437   0.437   0.437   0.437   0.437   0.437   0.437   0.437
   111.00    0.437   0.437   0.437   0.437   0.437   0.437   0.437   0.437   0.437   0.437   0.437   0.437   0.437   0.437   0.437   0.437   0.437   0.437   0.437   0.437   0.437   0.437   0.437   0.437   0.437   0.437   0.437   0.437   0.437   0.437   0.437   0.437   0.437   0.437   0.437   0.437   0.437   0.437   0.437   0.437   0.437
   107.50    0.437   0.437   0.437   0.437   0.437   0.437   0.437   0.437   0.437   0.437   0.437   0.437   0.437   0.437   0.437   0.437   0.437   0.437   0.437   0.437   0.437   0.437   0.437   0.437   0.437   0.437   0.437   0.437   0.437   0.437   0.437   0.437   0.437   0.437   0.437   0.437   0.437   0.437   0.437   0.437   0.437
   104.00    0.437   0.437   0.437   0.437   0.437   0.437   0.437   0.437   0.437   0.437   0.437   0.437   0.437   0.437   0.437   0.437   0.437   0.437   0.437   0.437   0.437   0.437   0.437   0.437   0.437   0.437   0.437   0.437   0.437   0.437   0.437   0.437   0.437   0.437   0.437   0.437   0.437   0.437   0.437   0.437   0.437
   100.50    0.437   0.437   0.437   0.437   0.437   0.437   0.437   0.437   0.437   0.437   0.437   0.437   0.437   0.437   0.437   0.437   0.437   0.437   0.437   0.437   0.437   0.437   0.437   0.437   0.437   0.437   0.437   0.437   0.437   0.437   0.437   0.437   0.437   0.437   0.437   0.437   0.437   0.437   0.437   0.437   0.437
    97.00    0.437   0.437   0.437   0.437   0.437   0.437   0.437   0.437   0.437   0.437   0.437   0.437   0.437   0.437   0.437   0.437   0.437   0.437   0.437   0.437   0.437   0.437   0.437   0.437   0.437   0.437   0.437   0.437   0.437   0.437   0.437   0.437   0.437   0.437   0.437   0.437   0.437   0.437   0.437   0.437   0.437
    93.50    0.437   0.437   0.437   0.437   0.437   0.437   0.437   0.437   0.437   0.437   0.437   0.437   0.437   0.437   0.437   0.437   0.437   0.437   0.437   0.437   0.437   0.437   0.437   0.437   0.437   0.437   0.437   0.437   0.437   0.437   0.437   0.437   0.437   0.437   0.437   0.437   0.437   0.437   0.437   0.437   0.437
    90.00    0.437   0.437   0.437   0.437   0.437   0.437   0.437   0.437   0.437   0.437   0.437   0.437   0.437   0.437   0.437   0.437   0.437   0.437   0.437   0.437   0.437   0.437   0.437   0.437   0.437   0.437   0.437   0.437   0.437   0.437   0.437   0.437   0.437   0.437   0.437   0.437   0.437   0.437   0.437   0.437   0.437
    86.50    0.437   0.437   0.437   0.437   0.437   0.437   0.437   0.437   0.437   0.437   0.437   0.437   0.437   0.437   0.437   0.437   0.437   0.437   0.437   0.437   0.437   0.437   0.437   0.437   0.437   0.437   0.437   0.437   0.437   0.437   0.437   0.437   0.437   0.437   0.437   0.437   0.437   0.437   0.437   0.437   0.437
    83.00    0.437   0.437   0.437   0.437   0.437   0.437   0.437   0.437   0.437   0.437   0.437   0.437   0.437   0.437   0.437   0.437   0.437   0.437   0.437   0.437   0.437   0.437   0.437   0.437   0.437   0.437   0.437   0.437   0.437   0.437   0.437   0.437   0.437   0.437   0.437   0.437   0.437   0.437   0.437   0.437   0.437
    79.50    0.437   0.437   0.437   0.437   0.437   0.437   0.437   0.437   0.437   0.437   0.437   0.437   0.437   0.437   0.437   0.437   0.437   0.437   0.437   0.437   0.437   0.437   0.437   0.437   0.437   0.437   0.437   0.437   0.437   0.437   0.437   0.437   0.437   0.437   0.437   0.437   0.437   0.437   0.437   0.437   0.437
    76.00    0.437   0.437   0.437   0.437   0.437   0.437   0.437   0.437   0.437   0.437   0.437   0.437   0.437   0.437   0.437   0.437   0.437   0.437   0.437   0.437   0.437   0.437   0.437   0.437   0.437   0.437   0.437   0.437   0.437   0.437   0.437   0.437   0.437   0.437   0.437   0.437   0.437   0.437   0.437   0.437   0.437
    72.50    0.437   0.437   0.437   0.437   0.437   0.437   0.437   0.437   0.437   0.437   0.437   0.437   0.437   0.437   0.437   0.437   0.437   0.437   0.437   0.437   0.437   0.437   0.437   0.437   0.437   0.437   0.437   0.437   0.437   0.437   0.437   0.437   0.437   0.437   0.437   0.437   0.437   0.437   0.437   0.437   0.437
    69.00    0.437   0.437   0.437   0.437   0.437   0.437   0.437   0.437   0.437   0.437   0.437   0.437   0.437   0.437   0.437   0.437   0.437   0.437   0.437   0.437   0.437   0.437   0.437   0.437   0.437   0.437   0.437   0.437   0.437   0.437   0.437   0.437   0.437   0.437   0.437   0.437   0.437   0.437   0.437   0.437   0.437
    65.50    0.437   0.437   0.437   0.437   0.437   0.437   0.437   0.437   0.437   0.437   0.437   0.437   0.437   0.437   0.437   0.437   0.437   0.437   0.437   0.437   0.437   0.437   0.437   0.437   0.437   0.437   0.437   0.437   0.437   0.437   0.437   0.437   0.437   0.437   0.437   0.437   0.437   0.437   0.437   0.437   0.437
    62.00    0.437   0.437   0.437   0.437   0.437   0.437   0.437   0.437   0.437   0.437   0.437   0.437   0.437   0.437   0.437   0.437   0.437   0.437   0.437   0.437   0.437   0.437   0.437   0.437   0.437   0.437   0.437   0.437   0.437   0.437   0.437   0.437   0.437   0.437   0.437   0.437   0.437   0.437   0.437   0.437   0.437
    58.50    0.437   0.437   0.437   0.437   0.437   0.437   0.437   0.437   0.437   0.437   0.437   0.437   0.437   0.437   0.437   0.437   0.437   0.437   0.437   0.437   0.437   0.437   0.437   0.437   0.437   0.437   0.437   0.437   0.437   0.437   0.437   0.437   0.437   0.437   0.437   0.437   0.437   0.437   0.437   0.437   0.437
    55.00    0.437   0.437   0.437   0.437   0.437   0.437   0.437   0.437   0.437   0.437   0.437   0.437   0.437   0.437   0.437   0.437   0.437   0.437   0.437   0.437   0.437   0.437   0.437   0.437   0.437   0.437   0.437   0.437   0.437   0.437   0.437   0.437   0.437   0.437   0.437   0.437   0.437   0.437   0.437   0.437   0.437
    51.50    0.437   0.437   0.437   0.437   0.437   0.437   0.437   0.437   0.437   0.437   0.437   0.437   0.437   0.437   0.437   0.437   0.437   0.437   0.437   0.437   0.437   0.437   0.437   0.437   0.437   0.437   0.437   0.437   0.437   0.437   0.437   0.437   0.437   0.437   0.437   0.437   0.437   0.437   0.437   0.437   0.437
    48.00    0.437   0.437   0.437   0.437   0.437   0.437   0.437   0.437   0.437   0.437   0.437   0.437   0.437   0.437   0.437   0.437   0.437   0.437   0.437   0.437   0.437   0.437   0.437   0.437   0.437   0.437   0.437   0.437   0.437   0.437   0.437   0.437   0.437   0.437   0.437   0.437   0.437   0.437   0.437   0.437   0.437
    44.50    0.437   0.437   0.437   0.437   0.437   0.437   0.437   0.437   0.437   0.437   0.437   0.437   0.437   0.437   0.437   0.437   0.437   0.437   0.437   0.437   0.437   0.437   0.437   0.437   0.437   0.437   0.437   0.437   0.437   0.437   0.437   0.437   0.437   0.437   0.437   0.437   0.437   0.437   0.437   0.437   0.437
    41.00    0.437   0.437   0.437   0.437   0.437   0.437   0.437   0.437   0.437   0.437   0.437   0.437   0.437   0.437   0.437   0.437   0.437   0.437   0.437   0.437   0.437   0.437   0.437   0.437   0.437   0.437   0.437   0.437   0.437   0.437   0.437   0.437   0.437   0.437   0.437   0.437   0.437   0.437   0.437   0.437   0.437
    37.50    0.437   0.437   0.437   0.437   0.437   0.437   0.437   0.437   0.437   0.437   0.437   0.437   0.437   0.437   0.437   0.437   0.437   0.437   0.437   0.437   0.437   0.437   0.437   0.437   0.437   0.437   0.437   0.437   0.437   0.437   0.437   0.437   0.437   0.437   0.437   0.437   0.437   0.437   0.437   0.437   0.437
    34.00    0.437   0.437   0.437   0.437   0.437   0.437   0.437   0.437   0.437   0.437   0.437   0.437   0.437   0.437   0.437   0.437   0.437   0.437   0.437   0.437   0.437   0.437   0.437   0.437   0.437   0.437   0.437   0.437   0.437   0.437   0.437   0.437   0.437   0.437   0.437   0.437   0.437   0.437   0.437   0.437   0.437
    30.50    0.437   0.437   0.437   0.437   0.437   0.437   0.437   0.437   0.437   0.437   0.437   0.437   0.437   0.437   0.437   0.437   0.437   0.437   0.437   0.437   0.437   0.437   0.437   0.437   0.437   0.437   0.437   0.437   0.437   0.437   0.437   0.437   0.437   0.437   0.437   0.437   0.437   0.437   0.437   0.437   0.437
    27.00    0.437   0.437   0.437   0.437   0.437   0.437   0.437   0.437   0.437   0.437   0.437   0.437   0.437   0.437   0.437   0.437   0.437   0.437   0.437   0.437   0.437   0.437   0.437   0.437   0.437   0.437   0.437   0.437   0.437   0.437   0.437   0.437   0.437   0.437   0.437   0.437   0.437   0.437   0.437   0.437   0.437
    23.50    0.437   0.437   0.437   0.437   0.437   0.437   0.437   0.437   0.437   0.437   0.437   0.437   0.437   0.437   0.437   0.437   0.437   0.437   0.437   0.437   0.437   0.437   0.437   0.437   0.437   0.437   0.437   0.437   0.437   0.437   0.437   0.437   0.437   0.437   0.437   0.437   0.437   0.437   0.437   0.437   0.437
    20.00    0.437   0.437   0.437   0.437   0.437   0.437   0.437   0.437   0.437   0.437   0.437   0.437   0.437   0.437   0.437   0.437   0.437   0.437   0.437   0.437   0.437   0.437   0.437   0.437   0.437   0.437   0.437   0.437   0.437   0.437   0.437   0.437   0.437   0.437   0.437   0.437   0.437   0.437   0.437   0.437   0.437

   Mean standard deviation across all grid points:
      u component:    0.879 m/s
      v component:    0.700 m/s
      w component:    0.437 m/s


U-component (X) statistics from the interpolated hub point:

   Mean =   9.0000 m/s
   TI   =   8.7138 %


Processing complete.  144.64 CPU seconds used.
