
This summary file was generated by TurbSim (v2.00.07a-bjj, 14-Jun-2016) on 04-Dec-2023 at 13:58:19.


ERROR:  ReadInputFile:OpenFInpFile:The input file, "TurbSim.inp", was not found.

ABORTING PROGRAM.
