
This summary file was generated by TurbSim (v2.00.07a-bjj, 14-Jun-2016) on 21-Dec-2023 at 11:34:30.


Runtime Options:

     13428  Random seed #1
    RANLUX  Type of random number generator
         F  Output binary HH turbulence parameters?
         F  Output formatted turbulence parameters?
         F  Output AeroDyn HH files?
         T  Output AeroDyn FF files?
         F  Output BLADED FF files?
         T  Output tower data?
         F  Output formatted FF files?
         F  Output coherent turbulence time step file?
         F  Clockwise rotation when looking downwind?
 0 -  NONE  IEC turbulence models scaled to exact specified standard deviation


Turbine/Model Specifications:

        35  Vertical grid-point matrix dimension
        35  Horizontal grid-point matrix dimension
     0.100  Time step [seconds]
   660.000  Analysis time [seconds]
   600.000  Usable output time [seconds]
    90.000  Hub height [m]
   140.000  Grid height [m]
   140.000  Grid width [m]
     0.000  Vertical flow angle [degrees]
     0.000  Horizontal flow angle [degrees]


Meteorological Boundary Conditions:

    IECKAI  IEC Kaimal spectral model
         1  IEC standard: IEC 61400-1 Ed. 3: 2005
    15.000  Percent turbulence intensity, IEC 61400-1 Ed. 3: 2005
       NTM  IEC Normal Turbulence Model
       N/A  IEC Extreme Turbulence Model (ETM) "c" parameter [m/s]
       PL   Wind profile type
    90.000  Reference height [m]
     9.000  Reference wind speed [m/s]
       N/A  Jet height [m]
     0.150  Power law exponent
     0.030  Surface roughness length [m]


Non-IEC Meteorological Boundary Conditions:

       N/A  Site latitude [degrees]
       N/A  Gradient Richardson number
       N/A  Friction or shear velocity [m/s]
       N/A  Mixing layer depth [m]
       N/A  Mean hub u'w' Reynolds stress
       N/A  Mean hub u'v' Reynolds stress
       N/A  Mean hub v'w' Reynolds stress


Spatial Coherence Models:

       IEC  u-component coherence model
      NONE  v-component coherence model
      NONE  w-component coherence model
(   12.000, 0.353E-03)  u-component coherence parameters
                   N/A  v-component coherence parameters
                   N/A  w-component coherence parameters
       N/A  Coherence exponent


You have requested that the following file(s) be generated:

   turbSimCondition2.bts (AeroDyn/TurbSim full-field wind file)


Turbulence Simulation Scaling Parameter Summary:

   Turbulence model used                            =  IEC Kaimal
   Turbulence characteristic                        =  User-specified
   IEC standard                                     =  IEC 61400-1 Ed. 3: 2005
   Mean wind speed at hub height                    =    9.000 m/s
   Characteristic value of standard deviation       =    1.350 m/s
   Turbulence scale                                 =   42.000 m
   u-component integral scale                       =  340.200 m
   Coherency scale                                  =  340.200 m
   Characteristic value of hub turbulence intensity =   15.000%
   Gradient Richardson number                       =    0.000

   Wind profile type                                =  Power law
   Power law exponent                               =    0.150
   Mean shear across rotor disk                     =    0.019 (m/s)/m
   Assumed rotor diameter                           =  140.000 m
   Surface roughness length                         =    0.030 m

   Nyquist frequency of turbulent wind field        =    5.000 Hz

   Number of time steps in the FFT                  =     6600
   Number of time steps output                      =     6156
   Number of points simulated                       =     1229


Mean Flow Angles:

   Vertical   =   0.0 degrees
   Horizontal =   0.0 degrees

Mean Wind Speed Profile:

   Height    Wind Speed   Horizontal Angle  Vertical Angle  U-comp (X)   V-comp (Y)   W-comp (Z)
     (m)        (m/s)         (degrees)       (degrees)       (m/s)        (m/s)        (m/s)   
   ------    ----------   ----------------  --------------  ----------   ----------   ----------
    160.0        9.81            0.00            0.00          9.81         0.00         0.00
    155.9        9.77            0.00            0.00          9.77         0.00         0.00
    151.8        9.73            0.00            0.00          9.73         0.00         0.00
    147.6        9.69            0.00            0.00          9.69         0.00         0.00
    143.5        9.65            0.00            0.00          9.65         0.00         0.00
    139.4        9.61            0.00            0.00          9.61         0.00         0.00
    135.3        9.57            0.00            0.00          9.57         0.00         0.00
    131.2        9.52            0.00            0.00          9.52         0.00         0.00
    127.1        9.48            0.00            0.00          9.48         0.00         0.00
    122.9        9.43            0.00            0.00          9.43         0.00         0.00
    118.8        9.38            0.00            0.00          9.38         0.00         0.00
    114.7        9.33            0.00            0.00          9.33         0.00         0.00
    110.6        9.28            0.00            0.00          9.28         0.00         0.00
    106.5        9.23            0.00            0.00          9.23         0.00         0.00
    102.4        9.18            0.00            0.00          9.18         0.00         0.00
     98.2        9.12            0.00            0.00          9.12         0.00         0.00
     94.1        9.06            0.00            0.00          9.06         0.00         0.00
     90.0        9.00            0.00            0.00          9.00         0.00         0.00
     85.9        8.94            0.00            0.00          8.94         0.00         0.00
     81.8        8.87            0.00            0.00          8.87         0.00         0.00
     77.6        8.80            0.00            0.00          8.80         0.00         0.00
     73.5        8.73            0.00            0.00          8.73         0.00         0.00
     69.4        8.66            0.00            0.00          8.66         0.00         0.00
     65.3        8.58            0.00            0.00          8.58         0.00         0.00
     61.2        8.49            0.00            0.00          8.49         0.00         0.00
     57.1        8.41            0.00            0.00          8.41         0.00         0.00
     52.9        8.31            0.00            0.00          8.31         0.00         0.00
     48.8        8.21            0.00            0.00          8.21         0.00         0.00
     44.7        8.10            0.00            0.00          8.10         0.00         0.00
     40.6        7.99            0.00            0.00          7.99         0.00         0.00
     36.5        7.86            0.00            0.00          7.86         0.00         0.00
     32.4        7.72            0.00            0.00          7.72         0.00         0.00
     28.2        7.56            0.00            0.00          7.56         0.00         0.00
     24.1        7.39            0.00            0.00          7.39         0.00         0.00
     20.0        7.18            0.00            0.00          7.18         0.00         0.00
     15.9        6.94            0.00            0.00          6.94         0.00         0.00
     11.8        6.63            0.00            0.00          6.63         0.00         0.00
      7.6        6.22            0.00            0.00          6.22         0.00         0.00
      3.5        5.54            0.00            0.00          5.54         0.00         0.00


Harvested Random Seeds after Generation of the Random Numbers:

    113052538 K 1
            0 K 2


Hub-Height Simulated Turbulence Statistical Summary:

   Type of Wind        Min (m/s)   Mean (m/s)    Max (m/s)  Sigma (m/s)       TI (%)
   ----------------    ---------   ----------    ---------  -----------       ------
   Longitudinal (u)         4.55         9.00        12.96        1.354       15.048
   Lateral (v)             -2.88        -0.00         3.28        1.049       11.659
   Vertical (w)            -2.04        -0.00         2.59        0.655        7.280
   U component              4.55         9.00        12.96        1.354       15.048
   V component             -2.88        -0.00         3.28        1.049       11.659
   W component             -2.04        -0.00         2.59        0.655        7.280
   Horizontal (U&V)         4.57         9.06        12.96        1.353       14.933
   Total                    4.58         9.09        12.96        1.347       14.826

                       Min Reynolds     Mean Reynolds    Max Reynolds    Correlation
   Product             Stress (m/s)^2   Stress (m/s)^2   Stress (m/s)^2  Coefficient
   ----------------    --------------   --------------   --------------  -----------
   u'w'                     -5.181            -0.098             4.678        -0.111
   u'v'                     -7.297             0.050             9.377         0.035
   v'w'                     -4.365            -0.028             4.165        -0.041


   Friction Velocity (Ustar)  =      0.314 m/s
   Maximum Instantaneous TKE  =     10.343 (m/s)^2
   Maximum Instantaneous CTKE =      5.543 (m/s)^2


Grid Point Variance Summary:

   Y-coord  -70.00  -65.88  -61.76  -57.65  -53.53  -49.41  -45.29  -41.18  -37.06  -32.94  -28.82  -24.71  -20.59  -16.47  -12.35   -8.24   -4.12    0.00    4.12    8.24   12.35   16.47   20.59   24.71   28.82   32.94   37.06   41.18   45.29   49.41   53.53   57.65   61.76   65.88   70.00

   Height   Standard deviation at grid points for the u component:
   160.00    1.302   1.319   1.335   1.308   1.321   1.231   1.269   1.293   1.341   1.229   1.236   1.241   1.213   1.196   1.198   1.253   1.240   1.200   1.267   1.284   1.373   1.303   1.259   1.295   1.242   1.256   1.291   1.360   1.275   1.242   1.260   1.279   1.295   1.378   1.353
   155.88    1.308   1.341   1.406   1.390   1.313   1.305   1.349   1.301   1.338   1.307   1.248   1.246   1.295   1.232   1.210   1.206   1.159   1.179   1.189   1.144   1.217   1.248   1.199   1.216   1.258   1.283   1.286   1.340   1.382   1.293   1.349   1.283   1.290   1.328   1.301
   151.76    1.248   1.340   1.390   1.402   1.372   1.344   1.359   1.332   1.329   1.346   1.240   1.295   1.335   1.275   1.267   1.177   1.120   1.112   1.144   1.184   1.212   1.209   1.151   1.220   1.342   1.266   1.295   1.292   1.401   1.331   1.422   1.316   1.313   1.381   1.372
   147.65    1.279   1.315   1.385   1.395   1.401   1.311   1.413   1.366   1.288   1.308   1.338   1.315   1.270   1.337   1.289   1.167   1.098   1.077   1.095   1.081   1.187   1.106   1.120   1.115   1.185   1.267   1.291   1.340   1.354   1.333   1.359   1.321   1.344   1.313   1.335
   143.53    1.296   1.281   1.276   1.319   1.426   1.357   1.383   1.420   1.346   1.283   1.312   1.288   1.338   1.304   1.281   1.197   1.168   1.105   1.062   1.066   1.147   1.117   1.127   1.094   1.103   1.210   1.224   1.267   1.341   1.350   1.384   1.256   1.306   1.360   1.315
   139.41    1.231   1.228   1.274   1.334   1.407   1.392   1.381   1.389   1.437   1.268   1.299   1.266   1.264   1.350   1.226   1.170   1.138   1.084   1.006   1.080   1.135   1.117   1.091   1.090   1.109   1.184   1.134   1.238   1.331   1.415   1.341   1.317   1.287   1.298   1.365
   135.29    1.283   1.289   1.262   1.305   1.294   1.364   1.339   1.404   1.361   1.329   1.288   1.302   1.255   1.249   1.260   1.186   1.175   1.123   1.037   1.119   1.112   1.086   1.089   1.147   1.135   1.086   1.105   1.216   1.280   1.275   1.397   1.435   1.409   1.384   1.359
   131.18    1.294   1.315   1.331   1.380   1.369   1.299   1.385   1.385   1.389   1.326   1.274   1.282   1.241   1.238   1.235   1.189   1.219   1.144   1.089   1.176   1.181   1.126   1.120   1.121   1.167   1.204   1.124   1.199   1.267   1.355   1.350   1.382   1.445   1.452   1.333
   127.06    1.367   1.409   1.482   1.495   1.489   1.358   1.329   1.365   1.378   1.295   1.219   1.201   1.214   1.247   1.304   1.304   1.267   1.211   1.191   1.213   1.248   1.168   1.093   1.114   1.139   1.201   1.209   1.209   1.277   1.347   1.348   1.419   1.404   1.370   1.340
   122.94    1.426   1.424   1.459   1.458   1.489   1.358   1.366   1.335   1.358   1.290   1.249   1.187   1.213   1.268   1.304   1.326   1.298   1.273   1.316   1.290   1.258   1.211   1.239   1.175   1.240   1.214   1.249   1.215   1.215   1.298   1.325   1.423   1.366   1.387   1.408
   118.82    1.379   1.338   1.376   1.404   1.425   1.409   1.372   1.290   1.311   1.239   1.295   1.182   1.275   1.310   1.314   1.335   1.287   1.334   1.287   1.233   1.265   1.250   1.266   1.208   1.261   1.201   1.259   1.273   1.233   1.219   1.286   1.377   1.322   1.303   1.414
   114.71    1.392   1.367   1.420   1.404   1.399   1.403   1.362   1.295   1.314   1.290   1.255   1.267   1.265   1.336   1.346   1.386   1.383   1.289   1.290   1.283   1.235   1.175   1.243   1.213   1.200   1.267   1.266   1.243   1.161   1.187   1.203   1.363   1.373   1.394   1.390
   110.59    1.453   1.428   1.443   1.417   1.438   1.369   1.366   1.386   1.389   1.371   1.321   1.282   1.306   1.288   1.366   1.316   1.349   1.308   1.345   1.296   1.193   1.156   1.180   1.265   1.208   1.273   1.237   1.200   1.097   1.164   1.260   1.281   1.296   1.258   1.363
   106.47    1.400   1.458   1.399   1.381   1.464   1.400   1.399   1.370   1.400   1.400   1.329   1.320   1.355   1.367   1.374   1.345   1.348   1.346   1.332   1.271   1.203   1.147   1.208   1.214   1.246   1.174   1.201   1.187   1.125   1.136   1.196   1.243   1.224   1.260   1.278
   102.35    1.449   1.425   1.379   1.402   1.490   1.473   1.414   1.415   1.410   1.418   1.400   1.299   1.384   1.419   1.428   1.416   1.365   1.340   1.384   1.241   1.223   1.183   1.179   1.227   1.254   1.194   1.201   1.176   1.170   1.163   1.115   1.186   1.209   1.211   1.201
    98.24    1.373   1.341   1.415   1.338   1.435   1.393   1.435   1.472   1.461   1.452   1.477   1.391   1.400   1.445   1.425   1.383   1.399   1.357   1.331   1.289   1.273   1.224   1.217   1.210   1.208   1.241   1.239   1.141   1.234   1.207   1.160   1.181   1.195   1.234   1.245
    94.12    1.298   1.372   1.457   1.400   1.412   1.431   1.393   1.400   1.522   1.561   1.464   1.430   1.456   1.386   1.368   1.429   1.427   1.395   1.378   1.313   1.236   1.222   1.145   1.099   1.131   1.148   1.161   1.131   1.152   1.145   1.127   1.175   1.148   1.217   1.253
    90.00    1.418   1.535   1.500   1.445   1.429   1.479   1.426   1.431   1.476   1.486   1.423   1.408   1.369   1.383   1.428   1.361   1.391   1.354   1.303   1.299   1.169   1.217   1.183   1.157   1.116   1.131   1.156   1.084   1.111   1.120   1.123   1.091   1.141   1.212   1.193
    85.88    1.495   1.516   1.465   1.384   1.443   1.459   1.451   1.460   1.475   1.437   1.358   1.417   1.328   1.388   1.397   1.398   1.349   1.331   1.300   1.326   1.258   1.167   1.194   1.179   1.162   1.228   1.169   1.112   1.078   1.090   1.081   1.123   1.125   1.164   1.213
    81.76    1.437   1.544   1.477   1.474   1.416   1.432   1.406   1.414   1.348   1.340   1.367   1.380   1.392   1.443   1.474   1.419   1.395   1.484   1.415   1.390   1.370   1.313   1.235   1.275   1.272   1.265   1.210   1.128   1.117   1.110   1.059   1.102   1.128   1.150   1.209
    77.65    1.521   1.575   1.524   1.458   1.414   1.299   1.284   1.274   1.255   1.263   1.313   1.306   1.365   1.411   1.443   1.436   1.456   1.493   1.452   1.412   1.405   1.282   1.321   1.330   1.234   1.214   1.222   1.254   1.193   1.108   1.059   1.106   1.130   1.096   1.102
    73.53    1.490   1.453   1.467   1.490   1.398   1.330   1.302   1.286   1.214   1.204   1.293   1.362   1.417   1.476   1.475   1.455   1.460   1.411   1.387   1.361   1.376   1.356   1.301   1.280   1.259   1.204   1.285   1.287   1.195   1.191   1.118   1.128   1.147   1.102   1.131
    69.41    1.439   1.425   1.420   1.404   1.368   1.329   1.285   1.263   1.245   1.179   1.238   1.294   1.401   1.413   1.470   1.527   1.397   1.383   1.411   1.369   1.430   1.409   1.371   1.344   1.293   1.178   1.284   1.300   1.211   1.172   1.171   1.170   1.090   1.111   1.206
    65.29    1.405   1.380   1.332   1.348   1.305   1.237   1.276   1.188   1.158   1.171   1.230   1.270   1.299   1.339   1.416   1.477   1.445   1.481   1.442   1.358   1.443   1.423   1.409   1.373   1.388   1.252   1.255   1.282   1.222   1.189   1.114   1.152   1.028   1.075   1.168
    61.18    1.341   1.319   1.321   1.306   1.279   1.257   1.262   1.243   1.193   1.189   1.178   1.279   1.310   1.378   1.392   1.465   1.480   1.450   1.390   1.369   1.396   1.434   1.379   1.309   1.389   1.347   1.294   1.234   1.278   1.221   1.157   1.121   1.088   1.092   1.119
    57.06    1.328   1.316   1.240   1.326   1.216   1.278   1.265   1.253   1.169   1.129   1.206   1.256   1.321   1.381   1.339   1.385   1.400   1.415   1.378   1.350   1.396   1.424   1.395   1.305   1.390   1.419   1.312   1.247   1.194   1.235   1.167   1.227   1.205   1.120   1.111
    52.94    1.266   1.205   1.175   1.242   1.295   1.309   1.286   1.226   1.165   1.166   1.181   1.190   1.234   1.272   1.314   1.360   1.334   1.367   1.350   1.362   1.409   1.408   1.426   1.398   1.407   1.419   1.360   1.260   1.326   1.242   1.216   1.286   1.252   1.128   1.088
    48.82    1.246   1.275   1.229   1.221   1.289   1.271   1.279   1.255   1.233   1.218   1.191   1.174   1.212   1.278   1.317   1.382   1.381   1.451   1.451   1.513   1.366   1.393   1.498   1.466   1.472   1.456   1.449   1.379   1.265   1.261   1.263   1.274   1.229   1.162   1.115
    44.71    1.270   1.265   1.250   1.258   1.217   1.215   1.237   1.268   1.324   1.269   1.204   1.206   1.230   1.374   1.402   1.483   1.457   1.543   1.501   1.499   1.400   1.455   1.508   1.463   1.502   1.484   1.346   1.295   1.325   1.221   1.274   1.323   1.252   1.127   1.125
    40.59    1.257   1.294   1.300   1.186   1.169   1.179   1.264   1.365   1.380   1.355   1.371   1.270   1.339   1.389   1.365   1.461   1.520   1.550   1.484   1.498   1.429   1.475   1.508   1.520   1.493   1.448   1.427   1.363   1.364   1.290   1.305   1.349   1.289   1.190   1.225
    36.47    1.239   1.298   1.293   1.185   1.181   1.249   1.214   1.259   1.328   1.387   1.323   1.356   1.342   1.442   1.478   1.474   1.499   1.463   1.442   1.471   1.457   1.474   1.496   1.513   1.545   1.540   1.537   1.490   1.457   1.419   1.416   1.418   1.382   1.292   1.251
    32.35    1.178   1.252   1.205   1.294   1.215   1.246   1.246   1.218   1.326   1.360   1.339   1.376   1.403   1.445   1.473   1.573   1.475   1.415   1.412   1.396   1.477   1.500   1.534   1.528   1.562   1.522   1.517   1.501   1.473   1.442   1.405   1.402   1.352   1.357   1.257
    28.24    1.264   1.217   1.203   1.238   1.277   1.252   1.262   1.361   1.422   1.401   1.400   1.410   1.479   1.470   1.381   1.476   1.467   1.406   1.398   1.322   1.386   1.476   1.467   1.488   1.485   1.541   1.534   1.493   1.496   1.516   1.519   1.394   1.306   1.276   1.263
    24.12    1.249   1.173   1.198   1.261   1.331   1.368   1.333   1.336   1.457   1.391   1.334   1.367   1.386   1.448   1.402   1.455   1.403   1.450   1.466   1.369   1.451   1.456   1.468   1.424   1.481   1.533   1.480   1.543   1.559   1.518   1.496   1.424   1.363   1.350   1.282
    20.00    1.271   1.206   1.196   1.265   1.350   1.391   1.320   1.339   1.394   1.435   1.298   1.304   1.340   1.393   1.397   1.466   1.468   1.445   1.435   1.402   1.438   1.434   1.494   1.492   1.415   1.448   1.421   1.490   1.543   1.570   1.530   1.436   1.410   1.468   1.329

   Height   Standard deviation at grid points for the v component:
   160.00    1.049   1.049   1.049   1.049   1.049   1.049   1.049   1.049   1.049   1.049   1.049   1.049   1.049   1.049   1.049   1.049   1.049   1.049   1.049   1.049   1.049   1.049   1.049   1.049   1.049   1.049   1.049   1.049   1.049   1.049   1.049   1.049   1.049   1.049   1.049
   155.88    1.049   1.049   1.049   1.049   1.049   1.049   1.049   1.049   1.049   1.049   1.049   1.049   1.049   1.049   1.049   1.049   1.049   1.049   1.049   1.049   1.049   1.049   1.049   1.049   1.049   1.049   1.049   1.049   1.049   1.049   1.049   1.049   1.049   1.049   1.049
   151.76    1.049   1.049   1.049   1.049   1.049   1.049   1.049   1.049   1.049   1.049   1.049   1.049   1.049   1.049   1.049   1.049   1.049   1.049   1.049   1.049   1.049   1.049   1.049   1.049   1.049   1.049   1.049   1.049   1.049   1.049   1.049   1.049   1.049   1.049   1.049
   147.65    1.049   1.049   1.049   1.049   1.049   1.049   1.049   1.049   1.049   1.049   1.049   1.049   1.049   1.049   1.049   1.049   1.049   1.049   1.049   1.049   1.049   1.049   1.049   1.049   1.049   1.049   1.049   1.049   1.049   1.049   1.049   1.049   1.049   1.049   1.049
   143.53    1.049   1.049   1.049   1.049   1.049   1.049   1.049   1.049   1.049   1.049   1.049   1.049   1.049   1.049   1.049   1.049   1.049   1.049   1.049   1.049   1.049   1.049   1.049   1.049   1.049   1.049   1.049   1.049   1.049   1.049   1.049   1.049   1.049   1.049   1.049
   139.41    1.049   1.049   1.049   1.049   1.049   1.049   1.049   1.049   1.049   1.049   1.049   1.049   1.049   1.049   1.049   1.049   1.049   1.049   1.049   1.049   1.049   1.049   1.049   1.049   1.049   1.049   1.049   1.049   1.049   1.049   1.049   1.049   1.049   1.049   1.049
   135.29    1.049   1.049   1.049   1.049   1.049   1.049   1.049   1.049   1.049   1.049   1.049   1.049   1.049   1.049   1.049   1.049   1.049   1.049   1.049   1.049   1.049   1.049   1.049   1.049   1.049   1.049   1.049   1.049   1.049   1.049   1.049   1.049   1.049   1.049   1.049
   131.18    1.049   1.049   1.049   1.049   1.049   1.049   1.049   1.049   1.049   1.049   1.049   1.049   1.049   1.049   1.049   1.049   1.049   1.049   1.049   1.049   1.049   1.049   1.049   1.049   1.049   1.049   1.049   1.049   1.049   1.049   1.049   1.049   1.049   1.049   1.049
   127.06    1.049   1.049   1.049   1.049   1.049   1.049   1.049   1.049   1.049   1.049   1.049   1.049   1.049   1.049   1.049   1.049   1.049   1.049   1.049   1.049   1.049   1.049   1.049   1.049   1.049   1.049   1.049   1.049   1.049   1.049   1.049   1.049   1.049   1.049   1.049
   122.94    1.049   1.049   1.049   1.049   1.049   1.049   1.049   1.049   1.049   1.049   1.049   1.049   1.049   1.049   1.049   1.049   1.049   1.049   1.049   1.049   1.049   1.049   1.049   1.049   1.049   1.049   1.049   1.049   1.049   1.049   1.049   1.049   1.049   1.049   1.049
   118.82    1.049   1.049   1.049   1.049   1.049   1.049   1.049   1.049   1.049   1.049   1.049   1.049   1.049   1.049   1.049   1.049   1.049   1.049   1.049   1.049   1.049   1.049   1.049   1.049   1.049   1.049   1.049   1.049   1.049   1.049   1.049   1.049   1.049   1.049   1.049
   114.71    1.049   1.049   1.049   1.049   1.049   1.049   1.049   1.049   1.049   1.049   1.049   1.049   1.049   1.049   1.049   1.049   1.049   1.049   1.049   1.049   1.049   1.049   1.049   1.049   1.049   1.049   1.049   1.049   1.049   1.049   1.049   1.049   1.049   1.049   1.049
   110.59    1.049   1.049   1.049   1.049   1.049   1.049   1.049   1.049   1.049   1.049   1.049   1.049   1.049   1.049   1.049   1.049   1.049   1.049   1.049   1.049   1.049   1.049   1.049   1.049   1.049   1.049   1.049   1.049   1.049   1.049   1.049   1.049   1.049   1.049   1.049
   106.47    1.049   1.049   1.049   1.049   1.049   1.049   1.049   1.049   1.049   1.049   1.049   1.049   1.049   1.049   1.049   1.049   1.049   1.049   1.049   1.049   1.049   1.049   1.049   1.049   1.049   1.049   1.049   1.049   1.049   1.049   1.049   1.049   1.049   1.049   1.049
   102.35    1.049   1.049   1.049   1.049   1.049   1.049   1.049   1.049   1.049   1.049   1.049   1.049   1.049   1.049   1.049   1.049   1.049   1.049   1.049   1.049   1.049   1.049   1.049   1.049   1.049   1.049   1.049   1.049   1.049   1.049   1.049   1.049   1.049   1.049   1.049
    98.24    1.049   1.049   1.049   1.049   1.049   1.049   1.049   1.049   1.049   1.049   1.049   1.049   1.049   1.049   1.049   1.049   1.049   1.049   1.049   1.049   1.049   1.049   1.049   1.049   1.049   1.049   1.049   1.049   1.049   1.049   1.049   1.049   1.049   1.049   1.049
    94.12    1.049   1.049   1.049   1.049   1.049   1.049   1.049   1.049   1.049   1.049   1.049   1.049   1.049   1.049   1.049   1.049   1.049   1.049   1.049   1.049   1.049   1.049   1.049   1.049   1.049   1.049   1.049   1.049   1.049   1.049   1.049   1.049   1.049   1.049   1.049
    90.00    1.049   1.049   1.049   1.049   1.049   1.049   1.049   1.049   1.049   1.049   1.049   1.049   1.049   1.049   1.049   1.049   1.049   1.049   1.049   1.049   1.049   1.049   1.049   1.049   1.049   1.049   1.049   1.049   1.049   1.049   1.049   1.049   1.049   1.049   1.049
    85.88    1.049   1.049   1.049   1.049   1.049   1.049   1.049   1.049   1.049   1.049   1.049   1.049   1.049   1.049   1.049   1.049   1.049   1.049   1.049   1.049   1.049   1.049   1.049   1.049   1.049   1.049   1.049   1.049   1.049   1.049   1.049   1.049   1.049   1.049   1.049
    81.76    1.049   1.049   1.049   1.049   1.049   1.049   1.049   1.049   1.049   1.049   1.049   1.049   1.049   1.049   1.049   1.049   1.049   1.049   1.049   1.049   1.049   1.049   1.049   1.049   1.049   1.049   1.049   1.049   1.049   1.049   1.049   1.049   1.049   1.049   1.049
    77.65    1.049   1.049   1.049   1.049   1.049   1.049   1.049   1.049   1.049   1.049   1.049   1.049   1.049   1.049   1.049   1.049   1.049   1.049   1.049   1.049   1.049   1.049   1.049   1.049   1.049   1.049   1.049   1.049   1.049   1.049   1.049   1.049   1.049   1.049   1.049
    73.53    1.049   1.049   1.049   1.049   1.049   1.049   1.049   1.049   1.049   1.049   1.049   1.049   1.049   1.049   1.049   1.049   1.049   1.049   1.049   1.049   1.049   1.049   1.049   1.049   1.049   1.049   1.049   1.049   1.049   1.049   1.049   1.049   1.049   1.049   1.049
    69.41    1.049   1.049   1.049   1.049   1.049   1.049   1.049   1.049   1.049   1.049   1.049   1.049   1.049   1.049   1.049   1.049   1.049   1.049   1.049   1.049   1.049   1.049   1.049   1.049   1.049   1.049   1.049   1.049   1.049   1.049   1.049   1.049   1.049   1.049   1.049
    65.29    1.049   1.049   1.049   1.049   1.049   1.049   1.049   1.049   1.049   1.049   1.049   1.049   1.049   1.049   1.049   1.049   1.049   1.049   1.049   1.049   1.049   1.049   1.049   1.049   1.049   1.049   1.049   1.049   1.049   1.049   1.049   1.049   1.049   1.049   1.049
    61.18    1.049   1.049   1.049   1.049   1.049   1.049   1.049   1.049   1.049   1.049   1.049   1.049   1.049   1.049   1.049   1.049   1.049   1.049   1.049   1.049   1.049   1.049   1.049   1.049   1.049   1.049   1.049   1.049   1.049   1.049   1.049   1.049   1.049   1.049   1.049
    57.06    1.049   1.049   1.049   1.049   1.049   1.049   1.049   1.049   1.049   1.049   1.049   1.049   1.049   1.049   1.049   1.049   1.049   1.049   1.049   1.049   1.049   1.049   1.049   1.049   1.049   1.049   1.049   1.049   1.049   1.049   1.049   1.049   1.049   1.049   1.049
    52.94    1.049   1.049   1.049   1.049   1.049   1.049   1.049   1.049   1.049   1.049   1.049   1.049   1.049   1.049   1.049   1.049   1.049   1.049   1.049   1.049   1.049   1.049   1.049   1.049   1.049   1.049   1.049   1.049   1.049   1.049   1.049   1.049   1.049   1.049   1.049
    48.82    1.049   1.049   1.049   1.049   1.049   1.049   1.049   1.049   1.049   1.049   1.049   1.049   1.049   1.049   1.049   1.049   1.049   1.049   1.049   1.049   1.049   1.049   1.049   1.049   1.049   1.049   1.049   1.049   1.049   1.049   1.049   1.049   1.049   1.049   1.049
    44.71    1.049   1.049   1.049   1.049   1.049   1.049   1.049   1.049   1.049   1.049   1.049   1.049   1.049   1.049   1.049   1.049   1.049   1.049   1.049   1.049   1.049   1.049   1.049   1.049   1.049   1.049   1.049   1.049   1.049   1.049   1.049   1.049   1.049   1.049   1.049
    40.59    1.049   1.049   1.049   1.049   1.049   1.049   1.049   1.049   1.049   1.049   1.049   1.049   1.049   1.049   1.049   1.049   1.049   1.049   1.049   1.049   1.049   1.049   1.049   1.049   1.049   1.049   1.049   1.049   1.049   1.049   1.049   1.049   1.049   1.049   1.049
    36.47    1.049   1.049   1.049   1.049   1.049   1.049   1.049   1.049   1.049   1.049   1.049   1.049   1.049   1.049   1.049   1.049   1.049   1.049   1.049   1.049   1.049   1.049   1.049   1.049   1.049   1.049   1.049   1.049   1.049   1.049   1.049   1.049   1.049   1.049   1.049
    32.35    1.049   1.049   1.049   1.049   1.049   1.049   1.049   1.049   1.049   1.049   1.049   1.049   1.049   1.049   1.049   1.049   1.049   1.049   1.049   1.049   1.049   1.049   1.049   1.049   1.049   1.049   1.049   1.049   1.049   1.049   1.049   1.049   1.049   1.049   1.049
    28.24    1.049   1.049   1.049   1.049   1.049   1.049   1.049   1.049   1.049   1.049   1.049   1.049   1.049   1.049   1.049   1.049   1.049   1.049   1.049   1.049   1.049   1.049   1.049   1.049   1.049   1.049   1.049   1.049   1.049   1.049   1.049   1.049   1.049   1.049   1.049
    24.12    1.049   1.049   1.049   1.049   1.049   1.049   1.049   1.049   1.049   1.049   1.049   1.049   1.049   1.049   1.049   1.049   1.049   1.049   1.049   1.049   1.049   1.049   1.049   1.049   1.049   1.049   1.049   1.049   1.049   1.049   1.049   1.049   1.049   1.049   1.049
    20.00    1.049   1.049   1.049   1.049   1.049   1.049   1.049   1.049   1.049   1.049   1.049   1.049   1.049   1.049   1.049   1.049   1.049   1.049   1.049   1.049   1.049   1.049   1.049   1.049   1.049   1.049   1.049   1.049   1.049   1.049   1.049   1.049   1.049   1.049   1.049

   Height   Standard deviation at grid points for the w component:
   160.00    0.655   0.655   0.655   0.655   0.655   0.655   0.655   0.655   0.655   0.655   0.655   0.655   0.655   0.655   0.655   0.655   0.655   0.655   0.655   0.655   0.655   0.655   0.655   0.655   0.655   0.655   0.655   0.655   0.655   0.655   0.655   0.655   0.655   0.655   0.655
   155.88    0.655   0.655   0.655   0.655   0.655   0.655   0.655   0.655   0.655   0.655   0.655   0.655   0.655   0.655   0.655   0.655   0.655   0.655   0.655   0.655   0.655   0.655   0.655   0.655   0.655   0.655   0.655   0.655   0.655   0.655   0.655   0.655   0.655   0.655   0.655
   151.76    0.655   0.655   0.655   0.655   0.655   0.655   0.655   0.655   0.655   0.655   0.655   0.655   0.655   0.655   0.655   0.655   0.655   0.655   0.655   0.655   0.655   0.655   0.655   0.655   0.655   0.655   0.655   0.655   0.655   0.655   0.655   0.655   0.655   0.655   0.655
   147.65    0.655   0.655   0.655   0.655   0.655   0.655   0.655   0.655   0.655   0.655   0.655   0.655   0.655   0.655   0.655   0.655   0.655   0.655   0.655   0.655   0.655   0.655   0.655   0.655   0.655   0.655   0.655   0.655   0.655   0.655   0.655   0.655   0.655   0.655   0.655
   143.53    0.655   0.655   0.655   0.655   0.655   0.655   0.655   0.655   0.655   0.655   0.655   0.655   0.655   0.655   0.655   0.655   0.655   0.655   0.655   0.655   0.655   0.655   0.655   0.655   0.655   0.655   0.655   0.655   0.655   0.655   0.655   0.655   0.655   0.655   0.655
   139.41    0.655   0.655   0.655   0.655   0.655   0.655   0.655   0.655   0.655   0.655   0.655   0.655   0.655   0.655   0.655   0.655   0.655   0.655   0.655   0.655   0.655   0.655   0.655   0.655   0.655   0.655   0.655   0.655   0.655   0.655   0.655   0.655   0.655   0.655   0.655
   135.29    0.655   0.655   0.655   0.655   0.655   0.655   0.655   0.655   0.655   0.655   0.655   0.655   0.655   0.655   0.655   0.655   0.655   0.655   0.655   0.655   0.655   0.655   0.655   0.655   0.655   0.655   0.655   0.655   0.655   0.655   0.655   0.655   0.655   0.655   0.655
   131.18    0.655   0.655   0.655   0.655   0.655   0.655   0.655   0.655   0.655   0.655   0.655   0.655   0.655   0.655   0.655   0.655   0.655   0.655   0.655   0.655   0.655   0.655   0.655   0.655   0.655   0.655   0.655   0.655   0.655   0.655   0.655   0.655   0.655   0.655   0.655
   127.06    0.655   0.655   0.655   0.655   0.655   0.655   0.655   0.655   0.655   0.655   0.655   0.655   0.655   0.655   0.655   0.655   0.655   0.655   0.655   0.655   0.655   0.655   0.655   0.655   0.655   0.655   0.655   0.655   0.655   0.655   0.655   0.655   0.655   0.655   0.655
   122.94    0.655   0.655   0.655   0.655   0.655   0.655   0.655   0.655   0.655   0.655   0.655   0.655   0.655   0.655   0.655   0.655   0.655   0.655   0.655   0.655   0.655   0.655   0.655   0.655   0.655   0.655   0.655   0.655   0.655   0.655   0.655   0.655   0.655   0.655   0.655
   118.82    0.655   0.655   0.655   0.655   0.655   0.655   0.655   0.655   0.655   0.655   0.655   0.655   0.655   0.655   0.655   0.655   0.655   0.655   0.655   0.655   0.655   0.655   0.655   0.655   0.655   0.655   0.655   0.655   0.655   0.655   0.655   0.655   0.655   0.655   0.655
   114.71    0.655   0.655   0.655   0.655   0.655   0.655   0.655   0.655   0.655   0.655   0.655   0.655   0.655   0.655   0.655   0.655   0.655   0.655   0.655   0.655   0.655   0.655   0.655   0.655   0.655   0.655   0.655   0.655   0.655   0.655   0.655   0.655   0.655   0.655   0.655
   110.59    0.655   0.655   0.655   0.655   0.655   0.655   0.655   0.655   0.655   0.655   0.655   0.655   0.655   0.655   0.655   0.655   0.655   0.655   0.655   0.655   0.655   0.655   0.655   0.655   0.655   0.655   0.655   0.655   0.655   0.655   0.655   0.655   0.655   0.655   0.655
   106.47    0.655   0.655   0.655   0.655   0.655   0.655   0.655   0.655   0.655   0.655   0.655   0.655   0.655   0.655   0.655   0.655   0.655   0.655   0.655   0.655   0.655   0.655   0.655   0.655   0.655   0.655   0.655   0.655   0.655   0.655   0.655   0.655   0.655   0.655   0.655
   102.35    0.655   0.655   0.655   0.655   0.655   0.655   0.655   0.655   0.655   0.655   0.655   0.655   0.655   0.655   0.655   0.655   0.655   0.655   0.655   0.655   0.655   0.655   0.655   0.655   0.655   0.655   0.655   0.655   0.655   0.655   0.655   0.655   0.655   0.655   0.655
    98.24    0.655   0.655   0.655   0.655   0.655   0.655   0.655   0.655   0.655   0.655   0.655   0.655   0.655   0.655   0.655   0.655   0.655   0.655   0.655   0.655   0.655   0.655   0.655   0.655   0.655   0.655   0.655   0.655   0.655   0.655   0.655   0.655   0.655   0.655   0.655
    94.12    0.655   0.655   0.655   0.655   0.655   0.655   0.655   0.655   0.655   0.655   0.655   0.655   0.655   0.655   0.655   0.655   0.655   0.655   0.655   0.655   0.655   0.655   0.655   0.655   0.655   0.655   0.655   0.655   0.655   0.655   0.655   0.655   0.655   0.655   0.655
    90.00    0.655   0.655   0.655   0.655   0.655   0.655   0.655   0.655   0.655   0.655   0.655   0.655   0.655   0.655   0.655   0.655   0.655   0.655   0.655   0.655   0.655   0.655   0.655   0.655   0.655   0.655   0.655   0.655   0.655   0.655   0.655   0.655   0.655   0.655   0.655
    85.88    0.655   0.655   0.655   0.655   0.655   0.655   0.655   0.655   0.655   0.655   0.655   0.655   0.655   0.655   0.655   0.655   0.655   0.655   0.655   0.655   0.655   0.655   0.655   0.655   0.655   0.655   0.655   0.655   0.655   0.655   0.655   0.655   0.655   0.655   0.655
    81.76    0.655   0.655   0.655   0.655   0.655   0.655   0.655   0.655   0.655   0.655   0.655   0.655   0.655   0.655   0.655   0.655   0.655   0.655   0.655   0.655   0.655   0.655   0.655   0.655   0.655   0.655   0.655   0.655   0.655   0.655   0.655   0.655   0.655   0.655   0.655
    77.65    0.655   0.655   0.655   0.655   0.655   0.655   0.655   0.655   0.655   0.655   0.655   0.655   0.655   0.655   0.655   0.655   0.655   0.655   0.655   0.655   0.655   0.655   0.655   0.655   0.655   0.655   0.655   0.655   0.655   0.655   0.655   0.655   0.655   0.655   0.655
    73.53    0.655   0.655   0.655   0.655   0.655   0.655   0.655   0.655   0.655   0.655   0.655   0.655   0.655   0.655   0.655   0.655   0.655   0.655   0.655   0.655   0.655   0.655   0.655   0.655   0.655   0.655   0.655   0.655   0.655   0.655   0.655   0.655   0.655   0.655   0.655
    69.41    0.655   0.655   0.655   0.655   0.655   0.655   0.655   0.655   0.655   0.655   0.655   0.655   0.655   0.655   0.655   0.655   0.655   0.655   0.655   0.655   0.655   0.655   0.655   0.655   0.655   0.655   0.655   0.655   0.655   0.655   0.655   0.655   0.655   0.655   0.655
    65.29    0.655   0.655   0.655   0.655   0.655   0.655   0.655   0.655   0.655   0.655   0.655   0.655   0.655   0.655   0.655   0.655   0.655   0.655   0.655   0.655   0.655   0.655   0.655   0.655   0.655   0.655   0.655   0.655   0.655   0.655   0.655   0.655   0.655   0.655   0.655
    61.18    0.655   0.655   0.655   0.655   0.655   0.655   0.655   0.655   0.655   0.655   0.655   0.655   0.655   0.655   0.655   0.655   0.655   0.655   0.655   0.655   0.655   0.655   0.655   0.655   0.655   0.655   0.655   0.655   0.655   0.655   0.655   0.655   0.655   0.655   0.655
    57.06    0.655   0.655   0.655   0.655   0.655   0.655   0.655   0.655   0.655   0.655   0.655   0.655   0.655   0.655   0.655   0.655   0.655   0.655   0.655   0.655   0.655   0.655   0.655   0.655   0.655   0.655   0.655   0.655   0.655   0.655   0.655   0.655   0.655   0.655   0.655
    52.94    0.655   0.655   0.655   0.655   0.655   0.655   0.655   0.655   0.655   0.655   0.655   0.655   0.655   0.655   0.655   0.655   0.655   0.655   0.655   0.655   0.655   0.655   0.655   0.655   0.655   0.655   0.655   0.655   0.655   0.655   0.655   0.655   0.655   0.655   0.655
    48.82    0.655   0.655   0.655   0.655   0.655   0.655   0.655   0.655   0.655   0.655   0.655   0.655   0.655   0.655   0.655   0.655   0.655   0.655   0.655   0.655   0.655   0.655   0.655   0.655   0.655   0.655   0.655   0.655   0.655   0.655   0.655   0.655   0.655   0.655   0.655
    44.71    0.655   0.655   0.655   0.655   0.655   0.655   0.655   0.655   0.655   0.655   0.655   0.655   0.655   0.655   0.655   0.655   0.655   0.655   0.655   0.655   0.655   0.655   0.655   0.655   0.655   0.655   0.655   0.655   0.655   0.655   0.655   0.655   0.655   0.655   0.655
    40.59    0.655   0.655   0.655   0.655   0.655   0.655   0.655   0.655   0.655   0.655   0.655   0.655   0.655   0.655   0.655   0.655   0.655   0.655   0.655   0.655   0.655   0.655   0.655   0.655   0.655   0.655   0.655   0.655   0.655   0.655   0.655   0.655   0.655   0.655   0.655
    36.47    0.655   0.655   0.655   0.655   0.655   0.655   0.655   0.655   0.655   0.655   0.655   0.655   0.655   0.655   0.655   0.655   0.655   0.655   0.655   0.655   0.655   0.655   0.655   0.655   0.655   0.655   0.655   0.655   0.655   0.655   0.655   0.655   0.655   0.655   0.655
    32.35    0.655   0.655   0.655   0.655   0.655   0.655   0.655   0.655   0.655   0.655   0.655   0.655   0.655   0.655   0.655   0.655   0.655   0.655   0.655   0.655   0.655   0.655   0.655   0.655   0.655   0.655   0.655   0.655   0.655   0.655   0.655   0.655   0.655   0.655   0.655
    28.24    0.655   0.655   0.655   0.655   0.655   0.655   0.655   0.655   0.655   0.655   0.655   0.655   0.655   0.655   0.655   0.655   0.655   0.655   0.655   0.655   0.655   0.655   0.655   0.655   0.655   0.655   0.655   0.655   0.655   0.655   0.655   0.655   0.655   0.655   0.655
    24.12    0.655   0.655   0.655   0.655   0.655   0.655   0.655   0.655   0.655   0.655   0.655   0.655   0.655   0.655   0.655   0.655   0.655   0.655   0.655   0.655   0.655   0.655   0.655   0.655   0.655   0.655   0.655   0.655   0.655   0.655   0.655   0.655   0.655   0.655   0.655
    20.00    0.655   0.655   0.655   0.655   0.655   0.655   0.655   0.655   0.655   0.655   0.655   0.655   0.655   0.655   0.655   0.655   0.655   0.655   0.655   0.655   0.655   0.655   0.655   0.655   0.655   0.655   0.655   0.655   0.655   0.655   0.655   0.655   0.655   0.655   0.655

   Mean standard deviation across all grid points:
      u component:    1.312 m/s
      v component:    1.049 m/s
      w component:    0.655 m/s


U-component (X) statistics from the interpolated hub point:

   Mean =   9.0000 m/s
   TI   =  15.0484 %


Processing complete.  63.547 CPU seconds used.
