
This summary file was generated by TurbSim (v2.00.07a-bjj, 14-Jun-2016) on 24-Dec-2023 at 00:34:02.


Runtime Options:

     13428  Random seed #1
    RANLUX  Type of random number generator
         F  Output binary HH turbulence parameters?
         F  Output formatted turbulence parameters?
         F  Output AeroDyn HH files?
         T  Output AeroDyn FF files?
         F  Output BLADED FF files?
         T  Output tower data?
         F  Output formatted FF files?
         F  Output coherent turbulence time step file?
         F  Clockwise rotation when looking downwind?
 0 -  NONE  IEC turbulence models scaled to exact specified standard deviation


Turbine/Model Specifications:

        41  Vertical grid-point matrix dimension
        41  Horizontal grid-point matrix dimension
     0.100  Time step [seconds]
   660.000  Analysis time [seconds]
   600.000  Usable output time [seconds]
    90.000  Hub height [m]
   140.000  Grid height [m]
   140.000  Grid width [m]
     0.000  Vertical flow angle [degrees]
     0.000  Horizontal flow angle [degrees]


Meteorological Boundary Conditions:

    IECKAI  IEC Kaimal spectral model
         1  IEC standard: IEC 61400-1 Ed. 3: 2005
    15.000  Percent turbulence intensity, IEC 61400-1 Ed. 3: 2005
       NTM  IEC Normal Turbulence Model
       N/A  IEC Extreme Turbulence Model (ETM) "c" parameter [m/s]
       PL   Wind profile type
    90.000  Reference height [m]
     9.000  Reference wind speed [m/s]
       N/A  Jet height [m]
     0.150  Power law exponent
     0.030  Surface roughness length [m]


Non-IEC Meteorological Boundary Conditions:

       N/A  Site latitude [degrees]
       N/A  Gradient Richardson number
       N/A  Friction or shear velocity [m/s]
       N/A  Mixing layer depth [m]
       N/A  Mean hub u'w' Reynolds stress
       N/A  Mean hub u'v' Reynolds stress
       N/A  Mean hub v'w' Reynolds stress


Spatial Coherence Models:

       IEC  u-component coherence model
      NONE  v-component coherence model
      NONE  w-component coherence model
(   12.000, 0.353E-03)  u-component coherence parameters
                   N/A  v-component coherence parameters
                   N/A  w-component coherence parameters
       N/A  Coherence exponent


You have requested that the following file(s) be generated:

   turbSimCondition2.bts (AeroDyn/TurbSim full-field wind file)


Turbulence Simulation Scaling Parameter Summary:

   Turbulence model used                            =  IEC Kaimal
   Turbulence characteristic                        =  User-specified
   IEC standard                                     =  IEC 61400-1 Ed. 3: 2005
   Mean wind speed at hub height                    =    9.000 m/s
   Characteristic value of standard deviation       =    1.350 m/s
   Turbulence scale                                 =   42.000 m
   u-component integral scale                       =  340.200 m
   Coherency scale                                  =  340.200 m
   Characteristic value of hub turbulence intensity =   15.000%
   Gradient Richardson number                       =    0.000

   Wind profile type                                =  Power law
   Power law exponent                               =    0.150
   Mean shear across rotor disk                     =    0.019 (m/s)/m
   Assumed rotor diameter                           =  140.000 m
   Surface roughness length                         =    0.030 m

   Nyquist frequency of turbulent wind field        =    5.000 Hz

   Number of time steps in the FFT                  =     6600
   Number of time steps output                      =     6156
   Number of points simulated                       =     1686


Mean Flow Angles:

   Vertical   =   0.0 degrees
   Horizontal =   0.0 degrees

Mean Wind Speed Profile:

   Height    Wind Speed   Horizontal Angle  Vertical Angle  U-comp (X)   V-comp (Y)   W-comp (Z)
     (m)        (m/s)         (degrees)       (degrees)       (m/s)        (m/s)        (m/s)   
   ------    ----------   ----------------  --------------  ----------   ----------   ----------
    160.0        9.81            0.00            0.00          9.81         0.00         0.00
    156.5        9.78            0.00            0.00          9.78         0.00         0.00
    153.0        9.75            0.00            0.00          9.75         0.00         0.00
    149.5        9.71            0.00            0.00          9.71         0.00         0.00
    146.0        9.68            0.00            0.00          9.68         0.00         0.00
    142.5        9.64            0.00            0.00          9.64         0.00         0.00
    139.0        9.61            0.00            0.00          9.61         0.00         0.00
    135.5        9.57            0.00            0.00          9.57         0.00         0.00
    132.0        9.53            0.00            0.00          9.53         0.00         0.00
    128.5        9.49            0.00            0.00          9.49         0.00         0.00
    125.0        9.45            0.00            0.00          9.45         0.00         0.00
    121.5        9.41            0.00            0.00          9.41         0.00         0.00
    118.0        9.37            0.00            0.00          9.37         0.00         0.00
    114.5        9.33            0.00            0.00          9.33         0.00         0.00
    111.0        9.29            0.00            0.00          9.29         0.00         0.00
    107.5        9.24            0.00            0.00          9.24         0.00         0.00
    104.0        9.20            0.00            0.00          9.20         0.00         0.00
    100.5        9.15            0.00            0.00          9.15         0.00         0.00
     97.0        9.10            0.00            0.00          9.10         0.00         0.00
     93.5        9.05            0.00            0.00          9.05         0.00         0.00
     90.0        9.00            0.00            0.00          9.00         0.00         0.00
     86.5        8.95            0.00            0.00          8.95         0.00         0.00
     83.0        8.89            0.00            0.00          8.89         0.00         0.00
     79.5        8.83            0.00            0.00          8.83         0.00         0.00
     76.0        8.77            0.00            0.00          8.77         0.00         0.00
     72.5        8.71            0.00            0.00          8.71         0.00         0.00
     69.0        8.65            0.00            0.00          8.65         0.00         0.00
     65.5        8.58            0.00            0.00          8.58         0.00         0.00
     62.0        8.51            0.00            0.00          8.51         0.00         0.00
     58.5        8.44            0.00            0.00          8.44         0.00         0.00
     55.0        8.36            0.00            0.00          8.36         0.00         0.00
     51.5        8.28            0.00            0.00          8.28         0.00         0.00
     48.0        8.19            0.00            0.00          8.19         0.00         0.00
     44.5        8.10            0.00            0.00          8.10         0.00         0.00
     41.0        8.00            0.00            0.00          8.00         0.00         0.00
     37.5        7.89            0.00            0.00          7.89         0.00         0.00
     34.0        7.78            0.00            0.00          7.78         0.00         0.00
     30.5        7.65            0.00            0.00          7.65         0.00         0.00
     27.0        7.51            0.00            0.00          7.51         0.00         0.00
     23.5        7.36            0.00            0.00          7.36         0.00         0.00
     20.0        7.18            0.00            0.00          7.18         0.00         0.00
     16.5        6.98            0.00            0.00          6.98         0.00         0.00
     13.0        6.73            0.00            0.00          6.73         0.00         0.00
      9.5        6.42            0.00            0.00          6.42         0.00         0.00
      6.0        6.00            0.00            0.00          6.00         0.00         0.00
      2.5        5.26            0.00            0.00          5.26         0.00         0.00


Harvested Random Seeds after Generation of the Random Numbers:

    155090925 K 1
            0 K 2


Hub-Height Simulated Turbulence Statistical Summary:

   Type of Wind        Min (m/s)   Mean (m/s)    Max (m/s)  Sigma (m/s)       TI (%)
   ----------------    ---------   ----------    ---------  -----------       ------
   Longitudinal (u)         5.37         9.00        13.37        1.176       13.071
   Lateral (v)             -3.40        -0.00         3.97        1.049       11.659
   Vertical (w)            -2.12        -0.00         2.63        0.655        7.280
   U component              5.37         9.00        13.37        1.176       13.071
   V component             -3.40        -0.00         3.97        1.049       11.659
   W component             -2.12        -0.00         2.63        0.655        7.280
   Horizontal (U&V)         5.43         9.06        13.41        1.163       12.828
   Total                    5.44         9.09        13.43        1.163       12.796

                       Min Reynolds     Mean Reynolds    Max Reynolds    Correlation
   Product             Stress (m/s)^2   Stress (m/s)^2   Stress (m/s)^2  Coefficient
   ----------------    --------------   --------------   --------------  -----------
   u'w'                     -5.497            -0.024             3.903        -0.032
   u'v'                     -7.840            -0.127             7.889        -0.103
   v'w'                     -5.412             0.020             3.715         0.029


   Friction Velocity (Ustar)  =      0.156 m/s
   Maximum Instantaneous TKE  =     10.411 (m/s)^2
   Maximum Instantaneous CTKE =      4.074 (m/s)^2


Grid Point Variance Summary:

   Y-coord  -70.00  -66.50  -63.00  -59.50  -56.00  -52.50  -49.00  -45.50  -42.00  -38.50  -35.00  -31.50  -28.00  -24.50  -21.00  -17.50  -14.00  -10.50   -7.00   -3.50    0.00    3.50    7.00   10.50   14.00   17.50   21.00   24.50   28.00   31.50   35.00   38.50   42.00   45.50   49.00   52.50   56.00   59.50   63.00   66.50   70.00

   Height   Standard deviation at grid points for the u component:
   160.00    1.477   1.410   1.437   1.454   1.446   1.445   1.417   1.464   1.453   1.439   1.482   1.465   1.475   1.449   1.479   1.487   1.449   1.405   1.339   1.383   1.424   1.419   1.305   1.345   1.354   1.263   1.266   1.224   1.235   1.249   1.243   1.285   1.245   1.214   1.261   1.202   1.185   1.091   1.048   1.039   1.051
   156.50    1.477   1.433   1.396   1.466   1.465   1.551   1.490   1.506   1.507   1.511   1.498   1.475   1.440   1.443   1.522   1.494   1.419   1.416   1.399   1.454   1.445   1.455   1.348   1.328   1.331   1.320   1.270   1.257   1.218   1.179   1.257   1.278   1.279   1.255   1.277   1.235   1.173   1.128   1.046   1.081   1.063
   153.00    1.486   1.458   1.467   1.467   1.448   1.496   1.446   1.501   1.459   1.469   1.508   1.444   1.440   1.531   1.526   1.454   1.464   1.477   1.472   1.440   1.397   1.393   1.326   1.319   1.309   1.295   1.276   1.226   1.253   1.181   1.231   1.234   1.265   1.255   1.252   1.250   1.213   1.182   1.088   1.093   1.142
   149.50    1.488   1.508   1.514   1.533   1.403   1.475   1.480   1.479   1.428   1.472   1.527   1.471   1.512   1.505   1.503   1.472   1.480   1.471   1.505   1.422   1.348   1.415   1.316   1.381   1.293   1.304   1.230   1.255   1.273   1.198   1.229   1.278   1.307   1.254   1.227   1.267   1.245   1.157   1.142   1.174   1.192
   146.00    1.545   1.430   1.470   1.471   1.486   1.508   1.470   1.501   1.437   1.515   1.550   1.496   1.454   1.501   1.493   1.406   1.372   1.453   1.467   1.470   1.361   1.329   1.274   1.299   1.299   1.254   1.221   1.216   1.213   1.252   1.230   1.281   1.313   1.228   1.242   1.225   1.271   1.190   1.117   1.150   1.173
   142.50    1.549   1.485   1.476   1.452   1.493   1.541   1.486   1.456   1.474   1.514   1.547   1.542   1.512   1.439   1.425   1.434   1.374   1.404   1.462   1.417   1.352   1.320   1.262   1.266   1.263   1.202   1.223   1.233   1.234   1.212   1.204   1.176   1.208   1.212   1.237   1.272   1.259   1.192   1.198   1.215   1.178
   139.00    1.499   1.439   1.400   1.514   1.509   1.586   1.555   1.501   1.480   1.535   1.526   1.571   1.473   1.384   1.430   1.365   1.374   1.411   1.376   1.372   1.363   1.246   1.197   1.202   1.161   1.230   1.189   1.109   1.070   1.117   1.138   1.150   1.176   1.225   1.359   1.318   1.255   1.223   1.240   1.171   1.170
   135.50    1.555   1.502   1.403   1.485   1.489   1.559   1.546   1.559   1.490   1.555   1.522   1.449   1.418   1.366   1.414   1.344   1.352   1.370   1.334   1.354   1.349   1.276   1.172   1.172   1.192   1.192   1.156   1.105   1.100   1.097   1.145   1.147   1.188   1.198   1.301   1.299   1.271   1.343   1.251   1.214   1.257
   132.00    1.481   1.430   1.510   1.463   1.498   1.526   1.517   1.519   1.438   1.439   1.449   1.457   1.347   1.325   1.345   1.347   1.305   1.312   1.375   1.325   1.317   1.292   1.276   1.215   1.184   1.100   1.090   1.061   1.097   1.167   1.179   1.168   1.094   1.246   1.273   1.288   1.335   1.348   1.354   1.340   1.291
   128.50    1.475   1.469   1.494   1.412   1.378   1.435   1.496   1.503   1.455   1.406   1.376   1.344   1.319   1.344   1.296   1.298   1.373   1.290   1.378   1.374   1.308   1.316   1.257   1.207   1.166   1.115   1.063   1.027   1.020   1.064   1.148   1.158   1.185   1.249   1.286   1.300   1.417   1.376   1.380   1.421   1.399
   125.00    1.357   1.421   1.351   1.377   1.390   1.500   1.515   1.522   1.524   1.423   1.400   1.363   1.403   1.350   1.307   1.373   1.435   1.362   1.319   1.312   1.290   1.283   1.232   1.212   1.183   1.106   1.063   1.062   1.154   1.178   1.173   1.193   1.182   1.282   1.321   1.373   1.390   1.399   1.412   1.390   1.376
   121.50    1.375   1.359   1.361   1.389   1.412   1.487   1.440   1.468   1.496   1.467   1.389   1.348   1.393   1.382   1.348   1.378   1.396   1.286   1.247   1.238   1.235   1.263   1.197   1.153   1.165   1.115   1.096   1.120   1.212   1.092   1.112   1.153   1.210   1.265   1.303   1.348   1.290   1.387   1.354   1.298   1.278
   118.00    1.367   1.357   1.425   1.373   1.404   1.423   1.437   1.414   1.417   1.415   1.445   1.358   1.407   1.368   1.359   1.363   1.290   1.294   1.235   1.227   1.204   1.232   1.131   1.126   1.159   1.172   1.097   1.132   1.196   1.163   1.156   1.214   1.221   1.215   1.288   1.357   1.348   1.370   1.320   1.320   1.317
   114.50    1.280   1.363   1.416   1.421   1.429   1.427   1.387   1.348   1.367   1.378   1.384   1.339   1.362   1.320   1.375   1.317   1.316   1.318   1.229   1.183   1.230   1.231   1.184   1.133   1.163   1.187   1.155   1.143   1.156   1.175   1.217   1.211   1.261   1.317   1.354   1.375   1.397   1.429   1.325   1.279   1.298
   111.00    1.303   1.383   1.362   1.347   1.425   1.402   1.381   1.355   1.322   1.371   1.389   1.391   1.397   1.332   1.336   1.261   1.320   1.308   1.245   1.225   1.185   1.187   1.140   1.121   1.186   1.225   1.260   1.152   1.161   1.229   1.178   1.238   1.270   1.299   1.335   1.371   1.394   1.429   1.305   1.340   1.303
   107.50    1.349   1.346   1.323   1.372   1.387   1.421   1.399   1.388   1.290   1.393   1.398   1.405   1.368   1.320   1.269   1.274   1.252   1.248   1.241   1.265   1.183   1.112   1.098   1.151   1.252   1.216   1.226   1.228   1.131   1.191   1.155   1.238   1.269   1.270   1.332   1.407   1.436   1.454   1.351   1.371   1.329
   104.00    1.350   1.408   1.341   1.339   1.358   1.403   1.475   1.414   1.350   1.352   1.342   1.290   1.320   1.263   1.229   1.266   1.271   1.233   1.192   1.202   1.203   1.144   1.166   1.221   1.207   1.138   1.235   1.249   1.245   1.185   1.261   1.227   1.247   1.307   1.357   1.386   1.410   1.352   1.330   1.366   1.292
   100.50    1.382   1.399   1.373   1.353   1.399   1.408   1.445   1.348   1.342   1.295   1.274   1.313   1.261   1.253   1.237   1.294   1.299   1.211   1.276   1.213   1.186   1.246   1.236   1.217   1.218   1.202   1.175   1.217   1.203   1.255   1.233   1.267   1.257   1.261   1.311   1.357   1.363   1.317   1.320   1.331   1.404
    97.00    1.379   1.394   1.372   1.370   1.371   1.387   1.414   1.374   1.277   1.253   1.243   1.208   1.216   1.281   1.264   1.285   1.320   1.324   1.249   1.269   1.244   1.217   1.261   1.247   1.206   1.162   1.145   1.152   1.267   1.280   1.279   1.263   1.338   1.352   1.346   1.344   1.386   1.329   1.247   1.348   1.447
    93.50    1.353   1.370   1.298   1.303   1.245   1.297   1.341   1.345   1.303   1.320   1.264   1.178   1.153   1.255   1.282   1.292   1.319   1.314   1.282   1.250   1.251   1.286   1.220   1.238   1.252   1.192   1.206   1.220   1.286   1.356   1.317   1.294   1.381   1.436   1.352   1.365   1.381   1.340   1.310   1.365   1.450
    90.00    1.379   1.359   1.257   1.287   1.280   1.329   1.363   1.338   1.279   1.313   1.280   1.244   1.250   1.231   1.237   1.221   1.252   1.189   1.229   1.212   1.176   1.196   1.158   1.174   1.210   1.250   1.208   1.183   1.293   1.244   1.346   1.327   1.412   1.401   1.428   1.443   1.411   1.431   1.394   1.351   1.421
    86.50    1.337   1.345   1.371   1.366   1.345   1.398   1.433   1.406   1.298   1.326   1.335   1.231   1.178   1.167   1.209   1.167   1.161   1.130   1.165   1.115   1.195   1.192   1.115   1.159   1.136   1.176   1.177   1.124   1.235   1.253   1.277   1.394   1.446   1.415   1.491   1.449   1.409   1.349   1.374   1.382   1.395
    83.00    1.325   1.392   1.362   1.395   1.367   1.432   1.437   1.419   1.329   1.344   1.306   1.253   1.161   1.125   1.096   1.178   1.175   1.101   1.095   1.206   1.226   1.196   1.142   1.160   1.153   1.113   1.146   1.201   1.231   1.253   1.302   1.323   1.405   1.447   1.472   1.451   1.491   1.447   1.381   1.366   1.331
    79.50    1.357   1.368   1.379   1.387   1.364   1.368   1.384   1.408   1.371   1.296   1.236   1.243   1.212   1.144   1.135   1.196   1.156   1.093   1.110   1.136   1.207   1.241   1.185   1.194   1.164   1.109   1.178   1.131   1.125   1.170   1.194   1.324   1.353   1.380   1.388   1.392   1.391   1.399   1.346   1.413   1.327
    76.00    1.329   1.355   1.320   1.351   1.364   1.347   1.367   1.370   1.382   1.307   1.203   1.270   1.229   1.236   1.220   1.169   1.187   1.150   1.153   1.169   1.153   1.214   1.264   1.279   1.234   1.216   1.149   1.124   1.125   1.133   1.122   1.230   1.276   1.310   1.380   1.360   1.235   1.284   1.329   1.312   1.317
    72.50    1.248   1.352   1.370   1.326   1.396   1.377   1.394   1.325   1.312   1.276   1.260   1.265   1.215   1.309   1.238   1.167   1.140   1.204   1.202   1.214   1.269   1.214   1.261   1.322   1.280   1.222   1.182   1.191   1.123   1.124   1.207   1.171   1.188   1.236   1.239   1.255   1.242   1.248   1.291   1.359   1.454
    69.00    1.376   1.369   1.355   1.324   1.386   1.441   1.388   1.276   1.263   1.237   1.260   1.335   1.295   1.222   1.182   1.224   1.232   1.313   1.229   1.289   1.290   1.242   1.323   1.263   1.262   1.212   1.183   1.131   1.125   1.186   1.178   1.146   1.196   1.198   1.233   1.270   1.241   1.261   1.306   1.318   1.419
    65.50    1.354   1.367   1.377   1.369   1.396   1.423   1.456   1.355   1.270   1.343   1.296   1.354   1.328   1.277   1.242   1.305   1.359   1.384   1.318   1.263   1.305   1.359   1.287   1.288   1.254   1.255   1.232   1.154   1.200   1.188   1.156   1.114   1.155   1.134   1.164   1.216   1.252   1.220   1.296   1.304   1.341
    62.00    1.361   1.322   1.350   1.357   1.323   1.355   1.389   1.395   1.374   1.309   1.287   1.331   1.288   1.285   1.286   1.351   1.352   1.380   1.350   1.282   1.389   1.420   1.339   1.295   1.270   1.275   1.239   1.165   1.097   1.137   1.207   1.179   1.172   1.120   1.167   1.147   1.263   1.297   1.311   1.381   1.451
    58.50    1.382   1.323   1.405   1.432   1.359   1.345   1.409   1.389   1.393   1.352   1.347   1.332   1.315   1.298   1.318   1.366   1.356   1.393   1.366   1.336   1.384   1.377   1.385   1.346   1.356   1.337   1.212   1.187   1.206   1.174   1.203   1.179   1.197   1.202   1.201   1.205   1.257   1.272   1.245   1.297   1.325
    55.00    1.348   1.358   1.387   1.380   1.443   1.402   1.427   1.334   1.353   1.365   1.379   1.326   1.339   1.297   1.276   1.308   1.343   1.360   1.377   1.390   1.347   1.344   1.392   1.339   1.349   1.372   1.258   1.201   1.233   1.220   1.230   1.201   1.173   1.192   1.187   1.128   1.213   1.296   1.310   1.310   1.309
    51.50    1.467   1.445   1.457   1.532   1.425   1.454   1.397   1.394   1.331   1.383   1.324   1.337   1.292   1.274   1.246   1.292   1.376   1.350   1.293   1.384   1.362   1.303   1.315   1.288   1.329   1.309   1.281   1.247   1.273   1.282   1.266   1.265   1.161   1.193   1.188   1.127   1.185   1.202   1.285   1.323   1.351
    48.00    1.514   1.469   1.472   1.503   1.476   1.414   1.393   1.358   1.314   1.320   1.235   1.286   1.323   1.357   1.330   1.273   1.335   1.296   1.354   1.351   1.293   1.368   1.373   1.296   1.340   1.402   1.335   1.284   1.315   1.325   1.257   1.247   1.159   1.170   1.127   1.181   1.161   1.225   1.277   1.258   1.279
    44.50    1.462   1.434   1.466   1.490   1.444   1.445   1.395   1.345   1.349   1.310   1.302   1.237   1.261   1.321   1.340   1.367   1.364   1.365   1.369   1.333   1.282   1.406   1.348   1.321   1.398   1.430   1.324   1.287   1.288   1.349   1.293   1.311   1.250   1.168   1.181   1.189   1.138   1.138   1.158   1.211   1.276
    41.00    1.453   1.426   1.478   1.479   1.434   1.404   1.364   1.318   1.358   1.383   1.360   1.300   1.246   1.262   1.341   1.369   1.404   1.430   1.470   1.371   1.364   1.416   1.375   1.324   1.336   1.358   1.364   1.311   1.322   1.327   1.260   1.249   1.276   1.272   1.237   1.186   1.143   1.185   1.156   1.159   1.158
    37.50    1.417   1.396   1.394   1.354   1.408   1.389   1.357   1.374   1.410   1.415   1.341   1.302   1.327   1.393   1.419   1.404   1.406   1.431   1.505   1.507   1.491   1.393   1.374   1.371   1.360   1.293   1.314   1.360   1.330   1.346   1.333   1.222   1.255   1.348   1.217   1.129   1.210   1.192   1.114   1.132   1.130
    34.00    1.404   1.406   1.481   1.409   1.389   1.434   1.427   1.436   1.461   1.407   1.276   1.311   1.429   1.483   1.469   1.470   1.437   1.534   1.551   1.496   1.393   1.415   1.314   1.375   1.361   1.368   1.369   1.369   1.391   1.342   1.363   1.279   1.327   1.320   1.275   1.207   1.188   1.138   1.136   1.098   1.083
    30.50    1.387   1.373   1.415   1.404   1.406   1.404   1.440   1.404   1.407   1.423   1.371   1.361   1.396   1.415   1.464   1.450   1.454   1.516   1.557   1.531   1.402   1.401   1.411   1.372   1.381   1.460   1.424   1.362   1.428   1.400   1.411   1.364   1.325   1.349   1.321   1.279   1.246   1.214   1.188   1.181   1.192
    27.00    1.337   1.309   1.261   1.332   1.383   1.390   1.430   1.410   1.402   1.412   1.352   1.375   1.370   1.408   1.446   1.398   1.443   1.478   1.550   1.491   1.464   1.439   1.429   1.381   1.433   1.380   1.452   1.440   1.470   1.486   1.451   1.446   1.403   1.337   1.325   1.328   1.223   1.239   1.299   1.247   1.199
    23.50    1.261   1.191   1.275   1.237   1.285   1.410   1.407   1.443   1.398   1.396   1.328   1.315   1.374   1.340   1.416   1.469   1.474   1.401   1.466   1.498   1.445   1.480   1.504   1.461   1.408   1.365   1.415   1.473   1.466   1.536   1.520   1.483   1.420   1.401   1.357   1.330   1.276   1.215   1.224   1.201   1.216
    20.00    1.271   1.211   1.200   1.263   1.345   1.385   1.316   1.338   1.396   1.435   1.310   1.315   1.348   1.396   1.402   1.464   1.463   1.445   1.433   1.407   1.438   1.439   1.492   1.495   1.426   1.459   1.432   1.497   1.549   1.575   1.539   1.454   1.436   1.490   1.363   1.339   1.293   1.234   1.207   1.193   1.252

   Height   Standard deviation at grid points for the v component:
   160.00    1.049   1.049   1.049   1.049   1.049   1.049   1.049   1.049   1.049   1.049   1.049   1.049   1.049   1.049   1.049   1.049   1.049   1.049   1.049   1.049   1.049   1.049   1.049   1.049   1.049   1.049   1.049   1.049   1.049   1.049   1.049   1.049   1.049   1.049   1.049   1.049   1.049   1.049   1.049   1.049   1.049
   156.50    1.049   1.049   1.049   1.049   1.049   1.049   1.049   1.049   1.049   1.049   1.049   1.049   1.049   1.049   1.049   1.049   1.049   1.049   1.049   1.049   1.049   1.049   1.049   1.049   1.049   1.049   1.049   1.049   1.049   1.049   1.049   1.049   1.049   1.049   1.049   1.049   1.049   1.049   1.049   1.049   1.049
   153.00    1.049   1.049   1.049   1.049   1.049   1.049   1.049   1.049   1.049   1.049   1.049   1.049   1.049   1.049   1.049   1.049   1.049   1.049   1.049   1.049   1.049   1.049   1.049   1.049   1.049   1.049   1.049   1.049   1.049   1.049   1.049   1.049   1.049   1.049   1.049   1.049   1.049   1.049   1.049   1.049   1.049
   149.50    1.049   1.049   1.049   1.049   1.049   1.049   1.049   1.049   1.049   1.049   1.049   1.049   1.049   1.049   1.049   1.049   1.049   1.049   1.049   1.049   1.049   1.049   1.049   1.049   1.049   1.049   1.049   1.049   1.049   1.049   1.049   1.049   1.049   1.049   1.049   1.049   1.049   1.049   1.049   1.049   1.049
   146.00    1.049   1.049   1.049   1.049   1.049   1.049   1.049   1.049   1.049   1.049   1.049   1.049   1.049   1.049   1.049   1.049   1.049   1.049   1.049   1.049   1.049   1.049   1.049   1.049   1.049   1.049   1.049   1.049   1.049   1.049   1.049   1.049   1.049   1.049   1.049   1.049   1.049   1.049   1.049   1.049   1.049
   142.50    1.049   1.049   1.049   1.049   1.049   1.049   1.049   1.049   1.049   1.049   1.049   1.049   1.049   1.049   1.049   1.049   1.049   1.049   1.049   1.049   1.049   1.049   1.049   1.049   1.049   1.049   1.049   1.049   1.049   1.049   1.049   1.049   1.049   1.049   1.049   1.049   1.049   1.049   1.049   1.049   1.049
   139.00    1.049   1.049   1.049   1.049   1.049   1.049   1.049   1.049   1.049   1.049   1.049   1.049   1.049   1.049   1.049   1.049   1.049   1.049   1.049   1.049   1.049   1.049   1.049   1.049   1.049   1.049   1.049   1.049   1.049   1.049   1.049   1.049   1.049   1.049   1.049   1.049   1.049   1.049   1.049   1.049   1.049
   135.50    1.049   1.049   1.049   1.049   1.049   1.049   1.049   1.049   1.049   1.049   1.049   1.049   1.049   1.049   1.049   1.049   1.049   1.049   1.049   1.049   1.049   1.049   1.049   1.049   1.049   1.049   1.049   1.049   1.049   1.049   1.049   1.049   1.049   1.049   1.049   1.049   1.049   1.049   1.049   1.049   1.049
   132.00    1.049   1.049   1.049   1.049   1.049   1.049   1.049   1.049   1.049   1.049   1.049   1.049   1.049   1.049   1.049   1.049   1.049   1.049   1.049   1.049   1.049   1.049   1.049   1.049   1.049   1.049   1.049   1.049   1.049   1.049   1.049   1.049   1.049   1.049   1.049   1.049   1.049   1.049   1.049   1.049   1.049
   128.50    1.049   1.049   1.049   1.049   1.049   1.049   1.049   1.049   1.049   1.049   1.049   1.049   1.049   1.049   1.049   1.049   1.049   1.049   1.049   1.049   1.049   1.049   1.049   1.049   1.049   1.049   1.049   1.049   1.049   1.049   1.049   1.049   1.049   1.049   1.049   1.049   1.049   1.049   1.049   1.049   1.049
   125.00    1.049   1.049   1.049   1.049   1.049   1.049   1.049   1.049   1.049   1.049   1.049   1.049   1.049   1.049   1.049   1.049   1.049   1.049   1.049   1.049   1.049   1.049   1.049   1.049   1.049   1.049   1.049   1.049   1.049   1.049   1.049   1.049   1.049   1.049   1.049   1.049   1.049   1.049   1.049   1.049   1.049
   121.50    1.049   1.049   1.049   1.049   1.049   1.049   1.049   1.049   1.049   1.049   1.049   1.049   1.049   1.049   1.049   1.049   1.049   1.049   1.049   1.049   1.049   1.049   1.049   1.049   1.049   1.049   1.049   1.049   1.049   1.049   1.049   1.049   1.049   1.049   1.049   1.049   1.049   1.049   1.049   1.049   1.049
   118.00    1.049   1.049   1.049   1.049   1.049   1.049   1.049   1.049   1.049   1.049   1.049   1.049   1.049   1.049   1.049   1.049   1.049   1.049   1.049   1.049   1.049   1.049   1.049   1.049   1.049   1.049   1.049   1.049   1.049   1.049   1.049   1.049   1.049   1.049   1.049   1.049   1.049   1.049   1.049   1.049   1.049
   114.50    1.049   1.049   1.049   1.049   1.049   1.049   1.049   1.049   1.049   1.049   1.049   1.049   1.049   1.049   1.049   1.049   1.049   1.049   1.049   1.049   1.049   1.049   1.049   1.049   1.049   1.049   1.049   1.049   1.049   1.049   1.049   1.049   1.049   1.049   1.049   1.049   1.049   1.049   1.049   1.049   1.049
   111.00    1.049   1.049   1.049   1.049   1.049   1.049   1.049   1.049   1.049   1.049   1.049   1.049   1.049   1.049   1.049   1.049   1.049   1.049   1.049   1.049   1.049   1.049   1.049   1.049   1.049   1.049   1.049   1.049   1.049   1.049   1.049   1.049   1.049   1.049   1.049   1.049   1.049   1.049   1.049   1.049   1.049
   107.50    1.049   1.049   1.049   1.049   1.049   1.049   1.049   1.049   1.049   1.049   1.049   1.049   1.049   1.049   1.049   1.049   1.049   1.049   1.049   1.049   1.049   1.049   1.049   1.049   1.049   1.049   1.049   1.049   1.049   1.049   1.049   1.049   1.049   1.049   1.049   1.049   1.049   1.049   1.049   1.049   1.049
   104.00    1.049   1.049   1.049   1.049   1.049   1.049   1.049   1.049   1.049   1.049   1.049   1.049   1.049   1.049   1.049   1.049   1.049   1.049   1.049   1.049   1.049   1.049   1.049   1.049   1.049   1.049   1.049   1.049   1.049   1.049   1.049   1.049   1.049   1.049   1.049   1.049   1.049   1.049   1.049   1.049   1.049
   100.50    1.049   1.049   1.049   1.049   1.049   1.049   1.049   1.049   1.049   1.049   1.049   1.049   1.049   1.049   1.049   1.049   1.049   1.049   1.049   1.049   1.049   1.049   1.049   1.049   1.049   1.049   1.049   1.049   1.049   1.049   1.049   1.049   1.049   1.049   1.049   1.049   1.049   1.049   1.049   1.049   1.049
    97.00    1.049   1.049   1.049   1.049   1.049   1.049   1.049   1.049   1.049   1.049   1.049   1.049   1.049   1.049   1.049   1.049   1.049   1.049   1.049   1.049   1.049   1.049   1.049   1.049   1.049   1.049   1.049   1.049   1.049   1.049   1.049   1.049   1.049   1.049   1.049   1.049   1.049   1.049   1.049   1.049   1.049
    93.50    1.049   1.049   1.049   1.049   1.049   1.049   1.049   1.049   1.049   1.049   1.049   1.049   1.049   1.049   1.049   1.049   1.049   1.049   1.049   1.049   1.049   1.049   1.049   1.049   1.049   1.049   1.049   1.049   1.049   1.049   1.049   1.049   1.049   1.049   1.049   1.049   1.049   1.049   1.049   1.049   1.049
    90.00    1.049   1.049   1.049   1.049   1.049   1.049   1.049   1.049   1.049   1.049   1.049   1.049   1.049   1.049   1.049   1.049   1.049   1.049   1.049   1.049   1.049   1.049   1.049   1.049   1.049   1.049   1.049   1.049   1.049   1.049   1.049   1.049   1.049   1.049   1.049   1.049   1.049   1.049   1.049   1.049   1.049
    86.50    1.049   1.049   1.049   1.049   1.049   1.049   1.049   1.049   1.049   1.049   1.049   1.049   1.049   1.049   1.049   1.049   1.049   1.049   1.049   1.049   1.049   1.049   1.049   1.049   1.049   1.049   1.049   1.049   1.049   1.049   1.049   1.049   1.049   1.049   1.049   1.049   1.049   1.049   1.049   1.049   1.049
    83.00    1.049   1.049   1.049   1.049   1.049   1.049   1.049   1.049   1.049   1.049   1.049   1.049   1.049   1.049   1.049   1.049   1.049   1.049   1.049   1.049   1.049   1.049   1.049   1.049   1.049   1.049   1.049   1.049   1.049   1.049   1.049   1.049   1.049   1.049   1.049   1.049   1.049   1.049   1.049   1.049   1.049
    79.50    1.049   1.049   1.049   1.049   1.049   1.049   1.049   1.049   1.049   1.049   1.049   1.049   1.049   1.049   1.049   1.049   1.049   1.049   1.049   1.049   1.049   1.049   1.049   1.049   1.049   1.049   1.049   1.049   1.049   1.049   1.049   1.049   1.049   1.049   1.049   1.049   1.049   1.049   1.049   1.049   1.049
    76.00    1.049   1.049   1.049   1.049   1.049   1.049   1.049   1.049   1.049   1.049   1.049   1.049   1.049   1.049   1.049   1.049   1.049   1.049   1.049   1.049   1.049   1.049   1.049   1.049   1.049   1.049   1.049   1.049   1.049   1.049   1.049   1.049   1.049   1.049   1.049   1.049   1.049   1.049   1.049   1.049   1.049
    72.50    1.049   1.049   1.049   1.049   1.049   1.049   1.049   1.049   1.049   1.049   1.049   1.049   1.049   1.049   1.049   1.049   1.049   1.049   1.049   1.049   1.049   1.049   1.049   1.049   1.049   1.049   1.049   1.049   1.049   1.049   1.049   1.049   1.049   1.049   1.049   1.049   1.049   1.049   1.049   1.049   1.049
    69.00    1.049   1.049   1.049   1.049   1.049   1.049   1.049   1.049   1.049   1.049   1.049   1.049   1.049   1.049   1.049   1.049   1.049   1.049   1.049   1.049   1.049   1.049   1.049   1.049   1.049   1.049   1.049   1.049   1.049   1.049   1.049   1.049   1.049   1.049   1.049   1.049   1.049   1.049   1.049   1.049   1.049
    65.50    1.049   1.049   1.049   1.049   1.049   1.049   1.049   1.049   1.049   1.049   1.049   1.049   1.049   1.049   1.049   1.049   1.049   1.049   1.049   1.049   1.049   1.049   1.049   1.049   1.049   1.049   1.049   1.049   1.049   1.049   1.049   1.049   1.049   1.049   1.049   1.049   1.049   1.049   1.049   1.049   1.049
    62.00    1.049   1.049   1.049   1.049   1.049   1.049   1.049   1.049   1.049   1.049   1.049   1.049   1.049   1.049   1.049   1.049   1.049   1.049   1.049   1.049   1.049   1.049   1.049   1.049   1.049   1.049   1.049   1.049   1.049   1.049   1.049   1.049   1.049   1.049   1.049   1.049   1.049   1.049   1.049   1.049   1.049
    58.50    1.049   1.049   1.049   1.049   1.049   1.049   1.049   1.049   1.049   1.049   1.049   1.049   1.049   1.049   1.049   1.049   1.049   1.049   1.049   1.049   1.049   1.049   1.049   1.049   1.049   1.049   1.049   1.049   1.049   1.049   1.049   1.049   1.049   1.049   1.049   1.049   1.049   1.049   1.049   1.049   1.049
    55.00    1.049   1.049   1.049   1.049   1.049   1.049   1.049   1.049   1.049   1.049   1.049   1.049   1.049   1.049   1.049   1.049   1.049   1.049   1.049   1.049   1.049   1.049   1.049   1.049   1.049   1.049   1.049   1.049   1.049   1.049   1.049   1.049   1.049   1.049   1.049   1.049   1.049   1.049   1.049   1.049   1.049
    51.50    1.049   1.049   1.049   1.049   1.049   1.049   1.049   1.049   1.049   1.049   1.049   1.049   1.049   1.049   1.049   1.049   1.049   1.049   1.049   1.049   1.049   1.049   1.049   1.049   1.049   1.049   1.049   1.049   1.049   1.049   1.049   1.049   1.049   1.049   1.049   1.049   1.049   1.049   1.049   1.049   1.049
    48.00    1.049   1.049   1.049   1.049   1.049   1.049   1.049   1.049   1.049   1.049   1.049   1.049   1.049   1.049   1.049   1.049   1.049   1.049   1.049   1.049   1.049   1.049   1.049   1.049   1.049   1.049   1.049   1.049   1.049   1.049   1.049   1.049   1.049   1.049   1.049   1.049   1.049   1.049   1.049   1.049   1.049
    44.50    1.049   1.049   1.049   1.049   1.049   1.049   1.049   1.049   1.049   1.049   1.049   1.049   1.049   1.049   1.049   1.049   1.049   1.049   1.049   1.049   1.049   1.049   1.049   1.049   1.049   1.049   1.049   1.049   1.049   1.049   1.049   1.049   1.049   1.049   1.049   1.049   1.049   1.049   1.049   1.049   1.049
    41.00    1.049   1.049   1.049   1.049   1.049   1.049   1.049   1.049   1.049   1.049   1.049   1.049   1.049   1.049   1.049   1.049   1.049   1.049   1.049   1.049   1.049   1.049   1.049   1.049   1.049   1.049   1.049   1.049   1.049   1.049   1.049   1.049   1.049   1.049   1.049   1.049   1.049   1.049   1.049   1.049   1.049
    37.50    1.049   1.049   1.049   1.049   1.049   1.049   1.049   1.049   1.049   1.049   1.049   1.049   1.049   1.049   1.049   1.049   1.049   1.049   1.049   1.049   1.049   1.049   1.049   1.049   1.049   1.049   1.049   1.049   1.049   1.049   1.049   1.049   1.049   1.049   1.049   1.049   1.049   1.049   1.049   1.049   1.049
    34.00    1.049   1.049   1.049   1.049   1.049   1.049   1.049   1.049   1.049   1.049   1.049   1.049   1.049   1.049   1.049   1.049   1.049   1.049   1.049   1.049   1.049   1.049   1.049   1.049   1.049   1.049   1.049   1.049   1.049   1.049   1.049   1.049   1.049   1.049   1.049   1.049   1.049   1.049   1.049   1.049   1.049
    30.50    1.049   1.049   1.049   1.049   1.049   1.049   1.049   1.049   1.049   1.049   1.049   1.049   1.049   1.049   1.049   1.049   1.049   1.049   1.049   1.049   1.049   1.049   1.049   1.049   1.049   1.049   1.049   1.049   1.049   1.049   1.049   1.049   1.049   1.049   1.049   1.049   1.049   1.049   1.049   1.049   1.049
    27.00    1.049   1.049   1.049   1.049   1.049   1.049   1.049   1.049   1.049   1.049   1.049   1.049   1.049   1.049   1.049   1.049   1.049   1.049   1.049   1.049   1.049   1.049   1.049   1.049   1.049   1.049   1.049   1.049   1.049   1.049   1.049   1.049   1.049   1.049   1.049   1.049   1.049   1.049   1.049   1.049   1.049
    23.50    1.049   1.049   1.049   1.049   1.049   1.049   1.049   1.049   1.049   1.049   1.049   1.049   1.049   1.049   1.049   1.049   1.049   1.049   1.049   1.049   1.049   1.049   1.049   1.049   1.049   1.049   1.049   1.049   1.049   1.049   1.049   1.049   1.049   1.049   1.049   1.049   1.049   1.049   1.049   1.049   1.049
    20.00    1.049   1.049   1.049   1.049   1.049   1.049   1.049   1.049   1.049   1.049   1.049   1.049   1.049   1.049   1.049   1.049   1.049   1.049   1.049   1.049   1.049   1.049   1.049   1.049   1.049   1.049   1.049   1.049   1.049   1.049   1.049   1.049   1.049   1.049   1.049   1.049   1.049   1.049   1.049   1.049   1.049

   Height   Standard deviation at grid points for the w component:
   160.00    0.655   0.655   0.655   0.655   0.655   0.655   0.655   0.655   0.655   0.655   0.655   0.655   0.655   0.655   0.655   0.655   0.655   0.655   0.655   0.655   0.655   0.655   0.655   0.655   0.655   0.655   0.655   0.655   0.655   0.655   0.655   0.655   0.655   0.655   0.655   0.655   0.655   0.655   0.655   0.655   0.655
   156.50    0.655   0.655   0.655   0.655   0.655   0.655   0.655   0.655   0.655   0.655   0.655   0.655   0.655   0.655   0.655   0.655   0.655   0.655   0.655   0.655   0.655   0.655   0.655   0.655   0.655   0.655   0.655   0.655   0.655   0.655   0.655   0.655   0.655   0.655   0.655   0.655   0.655   0.655   0.655   0.655   0.655
   153.00    0.655   0.655   0.655   0.655   0.655   0.655   0.655   0.655   0.655   0.655   0.655   0.655   0.655   0.655   0.655   0.655   0.655   0.655   0.655   0.655   0.655   0.655   0.655   0.655   0.655   0.655   0.655   0.655   0.655   0.655   0.655   0.655   0.655   0.655   0.655   0.655   0.655   0.655   0.655   0.655   0.655
   149.50    0.655   0.655   0.655   0.655   0.655   0.655   0.655   0.655   0.655   0.655   0.655   0.655   0.655   0.655   0.655   0.655   0.655   0.655   0.655   0.655   0.655   0.655   0.655   0.655   0.655   0.655   0.655   0.655   0.655   0.655   0.655   0.655   0.655   0.655   0.655   0.655   0.655   0.655   0.655   0.655   0.655
   146.00    0.655   0.655   0.655   0.655   0.655   0.655   0.655   0.655   0.655   0.655   0.655   0.655   0.655   0.655   0.655   0.655   0.655   0.655   0.655   0.655   0.655   0.655   0.655   0.655   0.655   0.655   0.655   0.655   0.655   0.655   0.655   0.655   0.655   0.655   0.655   0.655   0.655   0.655   0.655   0.655   0.655
   142.50    0.655   0.655   0.655   0.655   0.655   0.655   0.655   0.655   0.655   0.655   0.655   0.655   0.655   0.655   0.655   0.655   0.655   0.655   0.655   0.655   0.655   0.655   0.655   0.655   0.655   0.655   0.655   0.655   0.655   0.655   0.655   0.655   0.655   0.655   0.655   0.655   0.655   0.655   0.655   0.655   0.655
   139.00    0.655   0.655   0.655   0.655   0.655   0.655   0.655   0.655   0.655   0.655   0.655   0.655   0.655   0.655   0.655   0.655   0.655   0.655   0.655   0.655   0.655   0.655   0.655   0.655   0.655   0.655   0.655   0.655   0.655   0.655   0.655   0.655   0.655   0.655   0.655   0.655   0.655   0.655   0.655   0.655   0.655
   135.50    0.655   0.655   0.655   0.655   0.655   0.655   0.655   0.655   0.655   0.655   0.655   0.655   0.655   0.655   0.655   0.655   0.655   0.655   0.655   0.655   0.655   0.655   0.655   0.655   0.655   0.655   0.655   0.655   0.655   0.655   0.655   0.655   0.655   0.655   0.655   0.655   0.655   0.655   0.655   0.655   0.655
   132.00    0.655   0.655   0.655   0.655   0.655   0.655   0.655   0.655   0.655   0.655   0.655   0.655   0.655   0.655   0.655   0.655   0.655   0.655   0.655   0.655   0.655   0.655   0.655   0.655   0.655   0.655   0.655   0.655   0.655   0.655   0.655   0.655   0.655   0.655   0.655   0.655   0.655   0.655   0.655   0.655   0.655
   128.50    0.655   0.655   0.655   0.655   0.655   0.655   0.655   0.655   0.655   0.655   0.655   0.655   0.655   0.655   0.655   0.655   0.655   0.655   0.655   0.655   0.655   0.655   0.655   0.655   0.655   0.655   0.655   0.655   0.655   0.655   0.655   0.655   0.655   0.655   0.655   0.655   0.655   0.655   0.655   0.655   0.655
   125.00    0.655   0.655   0.655   0.655   0.655   0.655   0.655   0.655   0.655   0.655   0.655   0.655   0.655   0.655   0.655   0.655   0.655   0.655   0.655   0.655   0.655   0.655   0.655   0.655   0.655   0.655   0.655   0.655   0.655   0.655   0.655   0.655   0.655   0.655   0.655   0.655   0.655   0.655   0.655   0.655   0.655
   121.50    0.655   0.655   0.655   0.655   0.655   0.655   0.655   0.655   0.655   0.655   0.655   0.655   0.655   0.655   0.655   0.655   0.655   0.655   0.655   0.655   0.655   0.655   0.655   0.655   0.655   0.655   0.655   0.655   0.655   0.655   0.655   0.655   0.655   0.655   0.655   0.655   0.655   0.655   0.655   0.655   0.655
   118.00    0.655   0.655   0.655   0.655   0.655   0.655   0.655   0.655   0.655   0.655   0.655   0.655   0.655   0.655   0.655   0.655   0.655   0.655   0.655   0.655   0.655   0.655   0.655   0.655   0.655   0.655   0.655   0.655   0.655   0.655   0.655   0.655   0.655   0.655   0.655   0.655   0.655   0.655   0.655   0.655   0.655
   114.50    0.655   0.655   0.655   0.655   0.655   0.655   0.655   0.655   0.655   0.655   0.655   0.655   0.655   0.655   0.655   0.655   0.655   0.655   0.655   0.655   0.655   0.655   0.655   0.655   0.655   0.655   0.655   0.655   0.655   0.655   0.655   0.655   0.655   0.655   0.655   0.655   0.655   0.655   0.655   0.655   0.655
   111.00    0.655   0.655   0.655   0.655   0.655   0.655   0.655   0.655   0.655   0.655   0.655   0.655   0.655   0.655   0.655   0.655   0.655   0.655   0.655   0.655   0.655   0.655   0.655   0.655   0.655   0.655   0.655   0.655   0.655   0.655   0.655   0.655   0.655   0.655   0.655   0.655   0.655   0.655   0.655   0.655   0.655
   107.50    0.655   0.655   0.655   0.655   0.655   0.655   0.655   0.655   0.655   0.655   0.655   0.655   0.655   0.655   0.655   0.655   0.655   0.655   0.655   0.655   0.655   0.655   0.655   0.655   0.655   0.655   0.655   0.655   0.655   0.655   0.655   0.655   0.655   0.655   0.655   0.655   0.655   0.655   0.655   0.655   0.655
   104.00    0.655   0.655   0.655   0.655   0.655   0.655   0.655   0.655   0.655   0.655   0.655   0.655   0.655   0.655   0.655   0.655   0.655   0.655   0.655   0.655   0.655   0.655   0.655   0.655   0.655   0.655   0.655   0.655   0.655   0.655   0.655   0.655   0.655   0.655   0.655   0.655   0.655   0.655   0.655   0.655   0.655
   100.50    0.655   0.655   0.655   0.655   0.655   0.655   0.655   0.655   0.655   0.655   0.655   0.655   0.655   0.655   0.655   0.655   0.655   0.655   0.655   0.655   0.655   0.655   0.655   0.655   0.655   0.655   0.655   0.655   0.655   0.655   0.655   0.655   0.655   0.655   0.655   0.655   0.655   0.655   0.655   0.655   0.655
    97.00    0.655   0.655   0.655   0.655   0.655   0.655   0.655   0.655   0.655   0.655   0.655   0.655   0.655   0.655   0.655   0.655   0.655   0.655   0.655   0.655   0.655   0.655   0.655   0.655   0.655   0.655   0.655   0.655   0.655   0.655   0.655   0.655   0.655   0.655   0.655   0.655   0.655   0.655   0.655   0.655   0.655
    93.50    0.655   0.655   0.655   0.655   0.655   0.655   0.655   0.655   0.655   0.655   0.655   0.655   0.655   0.655   0.655   0.655   0.655   0.655   0.655   0.655   0.655   0.655   0.655   0.655   0.655   0.655   0.655   0.655   0.655   0.655   0.655   0.655   0.655   0.655   0.655   0.655   0.655   0.655   0.655   0.655   0.655
    90.00    0.655   0.655   0.655   0.655   0.655   0.655   0.655   0.655   0.655   0.655   0.655   0.655   0.655   0.655   0.655   0.655   0.655   0.655   0.655   0.655   0.655   0.655   0.655   0.655   0.655   0.655   0.655   0.655   0.655   0.655   0.655   0.655   0.655   0.655   0.655   0.655   0.655   0.655   0.655   0.655   0.655
    86.50    0.655   0.655   0.655   0.655   0.655   0.655   0.655   0.655   0.655   0.655   0.655   0.655   0.655   0.655   0.655   0.655   0.655   0.655   0.655   0.655   0.655   0.655   0.655   0.655   0.655   0.655   0.655   0.655   0.655   0.655   0.655   0.655   0.655   0.655   0.655   0.655   0.655   0.655   0.655   0.655   0.655
    83.00    0.655   0.655   0.655   0.655   0.655   0.655   0.655   0.655   0.655   0.655   0.655   0.655   0.655   0.655   0.655   0.655   0.655   0.655   0.655   0.655   0.655   0.655   0.655   0.655   0.655   0.655   0.655   0.655   0.655   0.655   0.655   0.655   0.655   0.655   0.655   0.655   0.655   0.655   0.655   0.655   0.655
    79.50    0.655   0.655   0.655   0.655   0.655   0.655   0.655   0.655   0.655   0.655   0.655   0.655   0.655   0.655   0.655   0.655   0.655   0.655   0.655   0.655   0.655   0.655   0.655   0.655   0.655   0.655   0.655   0.655   0.655   0.655   0.655   0.655   0.655   0.655   0.655   0.655   0.655   0.655   0.655   0.655   0.655
    76.00    0.655   0.655   0.655   0.655   0.655   0.655   0.655   0.655   0.655   0.655   0.655   0.655   0.655   0.655   0.655   0.655   0.655   0.655   0.655   0.655   0.655   0.655   0.655   0.655   0.655   0.655   0.655   0.655   0.655   0.655   0.655   0.655   0.655   0.655   0.655   0.655   0.655   0.655   0.655   0.655   0.655
    72.50    0.655   0.655   0.655   0.655   0.655   0.655   0.655   0.655   0.655   0.655   0.655   0.655   0.655   0.655   0.655   0.655   0.655   0.655   0.655   0.655   0.655   0.655   0.655   0.655   0.655   0.655   0.655   0.655   0.655   0.655   0.655   0.655   0.655   0.655   0.655   0.655   0.655   0.655   0.655   0.655   0.655
    69.00    0.655   0.655   0.655   0.655   0.655   0.655   0.655   0.655   0.655   0.655   0.655   0.655   0.655   0.655   0.655   0.655   0.655   0.655   0.655   0.655   0.655   0.655   0.655   0.655   0.655   0.655   0.655   0.655   0.655   0.655   0.655   0.655   0.655   0.655   0.655   0.655   0.655   0.655   0.655   0.655   0.655
    65.50    0.655   0.655   0.655   0.655   0.655   0.655   0.655   0.655   0.655   0.655   0.655   0.655   0.655   0.655   0.655   0.655   0.655   0.655   0.655   0.655   0.655   0.655   0.655   0.655   0.655   0.655   0.655   0.655   0.655   0.655   0.655   0.655   0.655   0.655   0.655   0.655   0.655   0.655   0.655   0.655   0.655
    62.00    0.655   0.655   0.655   0.655   0.655   0.655   0.655   0.655   0.655   0.655   0.655   0.655   0.655   0.655   0.655   0.655   0.655   0.655   0.655   0.655   0.655   0.655   0.655   0.655   0.655   0.655   0.655   0.655   0.655   0.655   0.655   0.655   0.655   0.655   0.655   0.655   0.655   0.655   0.655   0.655   0.655
    58.50    0.655   0.655   0.655   0.655   0.655   0.655   0.655   0.655   0.655   0.655   0.655   0.655   0.655   0.655   0.655   0.655   0.655   0.655   0.655   0.655   0.655   0.655   0.655   0.655   0.655   0.655   0.655   0.655   0.655   0.655   0.655   0.655   0.655   0.655   0.655   0.655   0.655   0.655   0.655   0.655   0.655
    55.00    0.655   0.655   0.655   0.655   0.655   0.655   0.655   0.655   0.655   0.655   0.655   0.655   0.655   0.655   0.655   0.655   0.655   0.655   0.655   0.655   0.655   0.655   0.655   0.655   0.655   0.655   0.655   0.655   0.655   0.655   0.655   0.655   0.655   0.655   0.655   0.655   0.655   0.655   0.655   0.655   0.655
    51.50    0.655   0.655   0.655   0.655   0.655   0.655   0.655   0.655   0.655   0.655   0.655   0.655   0.655   0.655   0.655   0.655   0.655   0.655   0.655   0.655   0.655   0.655   0.655   0.655   0.655   0.655   0.655   0.655   0.655   0.655   0.655   0.655   0.655   0.655   0.655   0.655   0.655   0.655   0.655   0.655   0.655
    48.00    0.655   0.655   0.655   0.655   0.655   0.655   0.655   0.655   0.655   0.655   0.655   0.655   0.655   0.655   0.655   0.655   0.655   0.655   0.655   0.655   0.655   0.655   0.655   0.655   0.655   0.655   0.655   0.655   0.655   0.655   0.655   0.655   0.655   0.655   0.655   0.655   0.655   0.655   0.655   0.655   0.655
    44.50    0.655   0.655   0.655   0.655   0.655   0.655   0.655   0.655   0.655   0.655   0.655   0.655   0.655   0.655   0.655   0.655   0.655   0.655   0.655   0.655   0.655   0.655   0.655   0.655   0.655   0.655   0.655   0.655   0.655   0.655   0.655   0.655   0.655   0.655   0.655   0.655   0.655   0.655   0.655   0.655   0.655
    41.00    0.655   0.655   0.655   0.655   0.655   0.655   0.655   0.655   0.655   0.655   0.655   0.655   0.655   0.655   0.655   0.655   0.655   0.655   0.655   0.655   0.655   0.655   0.655   0.655   0.655   0.655   0.655   0.655   0.655   0.655   0.655   0.655   0.655   0.655   0.655   0.655   0.655   0.655   0.655   0.655   0.655
    37.50    0.655   0.655   0.655   0.655   0.655   0.655   0.655   0.655   0.655   0.655   0.655   0.655   0.655   0.655   0.655   0.655   0.655   0.655   0.655   0.655   0.655   0.655   0.655   0.655   0.655   0.655   0.655   0.655   0.655   0.655   0.655   0.655   0.655   0.655   0.655   0.655   0.655   0.655   0.655   0.655   0.655
    34.00    0.655   0.655   0.655   0.655   0.655   0.655   0.655   0.655   0.655   0.655   0.655   0.655   0.655   0.655   0.655   0.655   0.655   0.655   0.655   0.655   0.655   0.655   0.655   0.655   0.655   0.655   0.655   0.655   0.655   0.655   0.655   0.655   0.655   0.655   0.655   0.655   0.655   0.655   0.655   0.655   0.655
    30.50    0.655   0.655   0.655   0.655   0.655   0.655   0.655   0.655   0.655   0.655   0.655   0.655   0.655   0.655   0.655   0.655   0.655   0.655   0.655   0.655   0.655   0.655   0.655   0.655   0.655   0.655   0.655   0.655   0.655   0.655   0.655   0.655   0.655   0.655   0.655   0.655   0.655   0.655   0.655   0.655   0.655
    27.00    0.655   0.655   0.655   0.655   0.655   0.655   0.655   0.655   0.655   0.655   0.655   0.655   0.655   0.655   0.655   0.655   0.655   0.655   0.655   0.655   0.655   0.655   0.655   0.655   0.655   0.655   0.655   0.655   0.655   0.655   0.655   0.655   0.655   0.655   0.655   0.655   0.655   0.655   0.655   0.655   0.655
    23.50    0.655   0.655   0.655   0.655   0.655   0.655   0.655   0.655   0.655   0.655   0.655   0.655   0.655   0.655   0.655   0.655   0.655   0.655   0.655   0.655   0.655   0.655   0.655   0.655   0.655   0.655   0.655   0.655   0.655   0.655   0.655   0.655   0.655   0.655   0.655   0.655   0.655   0.655   0.655   0.655   0.655
    20.00    0.655   0.655   0.655   0.655   0.655   0.655   0.655   0.655   0.655   0.655   0.655   0.655   0.655   0.655   0.655   0.655   0.655   0.655   0.655   0.655   0.655   0.655   0.655   0.655   0.655   0.655   0.655   0.655   0.655   0.655   0.655   0.655   0.655   0.655   0.655   0.655   0.655   0.655   0.655   0.655   0.655

   Mean standard deviation across all grid points:
      u component:    1.318 m/s
      v component:    1.049 m/s
      w component:    0.655 m/s


U-component (X) statistics from the interpolated hub point:

   Mean =   9.0000 m/s
   TI   =  13.0707 %


Processing complete.  142.7 CPU seconds used.
