
This summary file was generated by TurbSim (v2.00.07a-bjj, 14-Jun-2016) on 21-Dec-2023 at 10:11:58.


Runtime Options:

     13428  Random seed #1
    RANLUX  Type of random number generator
         F  Output binary HH turbulence parameters?
         F  Output formatted turbulence parameters?
         F  Output AeroDyn HH files?
         T  Output AeroDyn FF files?
         F  Output BLADED FF files?
         T  Output tower data?
         F  Output formatted FF files?
         F  Output coherent turbulence time step file?
         F  Clockwise rotation when looking downwind?
 0 -  NONE  IEC turbulence models scaled to exact specified standard deviation


Turbine/Model Specifications:

        35  Vertical grid-point matrix dimension
        35  Horizontal grid-point matrix dimension
     0.100  Time step [seconds]
   660.000  Analysis time [seconds]
   600.000  Usable output time [seconds]
    90.000  Hub height [m]
   140.000  Grid height [m]
   140.000  Grid width [m]
     0.000  Vertical flow angle [degrees]
     0.000  Horizontal flow angle [degrees]


Meteorological Boundary Conditions:

    IECKAI  IEC Kaimal spectral model
         1  IEC standard: IEC 61400-1 Ed. 3: 2005
    10.000  Percent turbulence intensity, IEC 61400-1 Ed. 3: 2005
       NTM  IEC Normal Turbulence Model
       N/A  IEC Extreme Turbulence Model (ETM) "c" parameter [m/s]
       PL   Wind profile type
    90.000  Reference height [m]
     9.000  Reference wind speed [m/s]
       N/A  Jet height [m]
     0.150  Power law exponent
     0.030  Surface roughness length [m]


Non-IEC Meteorological Boundary Conditions:

       N/A  Site latitude [degrees]
       N/A  Gradient Richardson number
       N/A  Friction or shear velocity [m/s]
       N/A  Mixing layer depth [m]
       N/A  Mean hub u'w' Reynolds stress
       N/A  Mean hub u'v' Reynolds stress
       N/A  Mean hub v'w' Reynolds stress


Spatial Coherence Models:

       IEC  u-component coherence model
      NONE  v-component coherence model
      NONE  w-component coherence model
(   12.000, 0.353E-03)  u-component coherence parameters
                   N/A  v-component coherence parameters
                   N/A  w-component coherence parameters
       N/A  Coherence exponent


You have requested that the following file(s) be generated:

   turbSimCondition1.bts (AeroDyn/TurbSim full-field wind file)


Turbulence Simulation Scaling Parameter Summary:

   Turbulence model used                            =  IEC Kaimal
   Turbulence characteristic                        =  User-specified
   IEC standard                                     =  IEC 61400-1 Ed. 3: 2005
   Mean wind speed at hub height                    =    9.000 m/s
   Characteristic value of standard deviation       =    0.900 m/s
   Turbulence scale                                 =   42.000 m
   u-component integral scale                       =  340.200 m
   Coherency scale                                  =  340.200 m
   Characteristic value of hub turbulence intensity =   10.000%
   Gradient Richardson number                       =    0.000

   Wind profile type                                =  Power law
   Power law exponent                               =    0.150
   Mean shear across rotor disk                     =    0.019 (m/s)/m
   Assumed rotor diameter                           =  140.000 m
   Surface roughness length                         =    0.030 m

   Nyquist frequency of turbulent wind field        =    5.000 Hz

   Number of time steps in the FFT                  =     6600
   Number of time steps output                      =     6156
   Number of points simulated                       =     1229


Mean Flow Angles:

   Vertical   =   0.0 degrees
   Horizontal =   0.0 degrees

Mean Wind Speed Profile:

   Height    Wind Speed   Horizontal Angle  Vertical Angle  U-comp (X)   V-comp (Y)   W-comp (Z)
     (m)        (m/s)         (degrees)       (degrees)       (m/s)        (m/s)        (m/s)   
   ------    ----------   ----------------  --------------  ----------   ----------   ----------
    160.0        9.81            0.00            0.00          9.81         0.00         0.00
    155.9        9.77            0.00            0.00          9.77         0.00         0.00
    151.8        9.73            0.00            0.00          9.73         0.00         0.00
    147.6        9.69            0.00            0.00          9.69         0.00         0.00
    143.5        9.65            0.00            0.00          9.65         0.00         0.00
    139.4        9.61            0.00            0.00          9.61         0.00         0.00
    135.3        9.57            0.00            0.00          9.57         0.00         0.00
    131.2        9.52            0.00            0.00          9.52         0.00         0.00
    127.1        9.48            0.00            0.00          9.48         0.00         0.00
    122.9        9.43            0.00            0.00          9.43         0.00         0.00
    118.8        9.38            0.00            0.00          9.38         0.00         0.00
    114.7        9.33            0.00            0.00          9.33         0.00         0.00
    110.6        9.28            0.00            0.00          9.28         0.00         0.00
    106.5        9.23            0.00            0.00          9.23         0.00         0.00
    102.4        9.18            0.00            0.00          9.18         0.00         0.00
     98.2        9.12            0.00            0.00          9.12         0.00         0.00
     94.1        9.06            0.00            0.00          9.06         0.00         0.00
     90.0        9.00            0.00            0.00          9.00         0.00         0.00
     85.9        8.94            0.00            0.00          8.94         0.00         0.00
     81.8        8.87            0.00            0.00          8.87         0.00         0.00
     77.6        8.80            0.00            0.00          8.80         0.00         0.00
     73.5        8.73            0.00            0.00          8.73         0.00         0.00
     69.4        8.66            0.00            0.00          8.66         0.00         0.00
     65.3        8.58            0.00            0.00          8.58         0.00         0.00
     61.2        8.49            0.00            0.00          8.49         0.00         0.00
     57.1        8.41            0.00            0.00          8.41         0.00         0.00
     52.9        8.31            0.00            0.00          8.31         0.00         0.00
     48.8        8.21            0.00            0.00          8.21         0.00         0.00
     44.7        8.10            0.00            0.00          8.10         0.00         0.00
     40.6        7.99            0.00            0.00          7.99         0.00         0.00
     36.5        7.86            0.00            0.00          7.86         0.00         0.00
     32.4        7.72            0.00            0.00          7.72         0.00         0.00
     28.2        7.56            0.00            0.00          7.56         0.00         0.00
     24.1        7.39            0.00            0.00          7.39         0.00         0.00
     20.0        7.18            0.00            0.00          7.18         0.00         0.00
     15.9        6.94            0.00            0.00          6.94         0.00         0.00
     11.8        6.63            0.00            0.00          6.63         0.00         0.00
      7.6        6.22            0.00            0.00          6.22         0.00         0.00
      3.5        5.54            0.00            0.00          5.54         0.00         0.00


Harvested Random Seeds after Generation of the Random Numbers:

    113052538 K 1
            0 K 2


Hub-Height Simulated Turbulence Statistical Summary:

   Type of Wind        Min (m/s)   Mean (m/s)    Max (m/s)  Sigma (m/s)       TI (%)
   ----------------    ---------   ----------    ---------  -----------       ------
   Longitudinal (u)         6.03         9.00        11.64        0.903       10.032
   Lateral (v)             -1.92        -0.00         2.18        0.700        7.773
   Vertical (w)            -1.36        -0.00         1.72        0.437        4.853
   U component              6.03         9.00        11.64        0.903       10.032
   V component             -1.92        -0.00         2.18        0.700        7.773
   W component             -1.36        -0.00         1.72        0.437        4.853
   Horizontal (U&V)         6.04         9.03        11.64        0.903       10.007
   Total                    6.04         9.04        11.64        0.901        9.971

                       Min Reynolds     Mean Reynolds    Max Reynolds    Correlation
   Product             Stress (m/s)^2   Stress (m/s)^2   Stress (m/s)^2  Coefficient
   ----------------    --------------   --------------   --------------  -----------
   u'w'                     -2.303            -0.044             2.079        -0.111
   u'v'                     -3.243             0.022             4.168         0.035
   v'w'                     -1.940            -0.013             1.851        -0.041


   Friction Velocity (Ustar)  =      0.209 m/s
   Maximum Instantaneous TKE  =      4.597 (m/s)^2
   Maximum Instantaneous CTKE =      2.464 (m/s)^2


Grid Point Variance Summary:

   Y-coord  -70.00  -65.88  -61.76  -57.65  -53.53  -49.41  -45.29  -41.18  -37.06  -32.94  -28.82  -24.71  -20.59  -16.47  -12.35   -8.24   -4.12    0.00    4.12    8.24   12.35   16.47   20.59   24.71   28.82   32.94   37.06   41.18   45.29   49.41   53.53   57.65   61.76   65.88   70.00

   Height   Standard deviation at grid points for the u component:
   160.00    0.868   0.879   0.890   0.872   0.881   0.821   0.846   0.862   0.894   0.819   0.824   0.827   0.809   0.797   0.799   0.836   0.827   0.800   0.845   0.856   0.915   0.869   0.839   0.863   0.828   0.838   0.861   0.906   0.850   0.828   0.840   0.853   0.863   0.919   0.902
   155.88    0.872   0.894   0.938   0.927   0.876   0.870   0.899   0.867   0.892   0.871   0.832   0.831   0.864   0.822   0.807   0.804   0.773   0.786   0.793   0.762   0.812   0.832   0.800   0.811   0.838   0.855   0.857   0.893   0.921   0.862   0.899   0.856   0.860   0.886   0.868
   151.76    0.832   0.893   0.927   0.934   0.915   0.896   0.906   0.888   0.886   0.897   0.827   0.863   0.890   0.850   0.844   0.785   0.747   0.741   0.763   0.789   0.808   0.806   0.767   0.814   0.895   0.844   0.863   0.862   0.934   0.888   0.948   0.878   0.875   0.921   0.915
   147.65    0.853   0.876   0.923   0.930   0.934   0.874   0.942   0.911   0.859   0.872   0.892   0.877   0.847   0.892   0.859   0.778   0.732   0.718   0.730   0.720   0.791   0.738   0.747   0.744   0.790   0.845   0.861   0.893   0.903   0.889   0.906   0.880   0.896   0.875   0.890
   143.53    0.864   0.854   0.851   0.879   0.950   0.905   0.922   0.946   0.897   0.856   0.874   0.859   0.892   0.869   0.854   0.798   0.779   0.737   0.708   0.711   0.765   0.745   0.751   0.730   0.735   0.807   0.816   0.845   0.894   0.900   0.923   0.837   0.871   0.906   0.876
   139.41    0.821   0.819   0.849   0.889   0.938   0.928   0.921   0.926   0.958   0.845   0.866   0.844   0.842   0.900   0.817   0.780   0.759   0.723   0.671   0.720   0.757   0.744   0.727   0.727   0.739   0.790   0.756   0.825   0.887   0.943   0.894   0.878   0.858   0.865   0.910
   135.29    0.856   0.859   0.842   0.870   0.863   0.909   0.892   0.936   0.908   0.886   0.858   0.868   0.837   0.833   0.840   0.790   0.783   0.749   0.691   0.746   0.742   0.724   0.726   0.764   0.757   0.724   0.737   0.810   0.853   0.850   0.931   0.957   0.939   0.922   0.906
   131.18    0.863   0.876   0.887   0.920   0.913   0.866   0.923   0.924   0.926   0.884   0.849   0.855   0.827   0.825   0.823   0.793   0.813   0.763   0.726   0.784   0.788   0.751   0.747   0.748   0.778   0.803   0.749   0.799   0.845   0.903   0.900   0.921   0.963   0.968   0.889
   127.06    0.912   0.940   0.988   0.997   0.993   0.906   0.886   0.910   0.919   0.863   0.813   0.801   0.809   0.832   0.869   0.869   0.844   0.807   0.794   0.809   0.832   0.778   0.729   0.743   0.759   0.800   0.806   0.806   0.852   0.898   0.898   0.946   0.936   0.913   0.893
   122.94    0.950   0.950   0.972   0.972   0.992   0.905   0.911   0.890   0.906   0.860   0.833   0.791   0.809   0.845   0.870   0.884   0.865   0.848   0.877   0.860   0.839   0.807   0.826   0.783   0.827   0.810   0.832   0.810   0.810   0.865   0.883   0.949   0.911   0.925   0.939
   118.82    0.919   0.892   0.917   0.936   0.950   0.940   0.915   0.860   0.874   0.826   0.864   0.788   0.850   0.873   0.876   0.890   0.858   0.889   0.858   0.822   0.843   0.833   0.844   0.805   0.841   0.801   0.839   0.849   0.822   0.812   0.857   0.918   0.882   0.869   0.943
   114.71    0.928   0.911   0.947   0.936   0.932   0.935   0.908   0.864   0.876   0.860   0.837   0.845   0.843   0.891   0.897   0.924   0.922   0.859   0.860   0.855   0.824   0.783   0.829   0.809   0.800   0.845   0.844   0.828   0.774   0.791   0.802   0.908   0.915   0.929   0.927
   110.59    0.969   0.952   0.962   0.945   0.959   0.913   0.911   0.924   0.926   0.914   0.881   0.854   0.871   0.858   0.911   0.877   0.900   0.872   0.897   0.864   0.795   0.771   0.787   0.843   0.805   0.849   0.824   0.800   0.731   0.776   0.840   0.854   0.864   0.838   0.908
   106.47    0.933   0.972   0.933   0.920   0.976   0.933   0.933   0.913   0.934   0.933   0.886   0.880   0.904   0.912   0.916   0.896   0.899   0.898   0.888   0.848   0.802   0.765   0.805   0.809   0.831   0.782   0.801   0.792   0.750   0.757   0.797   0.829   0.816   0.840   0.852
   102.35    0.966   0.950   0.919   0.935   0.994   0.982   0.943   0.943   0.940   0.946   0.934   0.866   0.922   0.946   0.952   0.944   0.910   0.893   0.922   0.828   0.815   0.789   0.786   0.818   0.836   0.796   0.801   0.784   0.780   0.775   0.743   0.791   0.806   0.807   0.801
    98.24    0.915   0.894   0.944   0.892   0.956   0.929   0.957   0.982   0.974   0.968   0.985   0.927   0.934   0.963   0.950   0.922   0.933   0.904   0.887   0.859   0.849   0.816   0.811   0.806   0.806   0.827   0.826   0.761   0.822   0.805   0.773   0.787   0.796   0.823   0.830
    94.12    0.866   0.914   0.971   0.934   0.941   0.954   0.929   0.934   1.015   1.041   0.976   0.953   0.970   0.924   0.912   0.953   0.951   0.930   0.918   0.875   0.824   0.815   0.764   0.733   0.754   0.765   0.774   0.754   0.768   0.763   0.751   0.784   0.765   0.811   0.836
    90.00    0.946   1.023   1.000   0.964   0.953   0.986   0.951   0.954   0.984   0.991   0.949   0.939   0.912   0.922   0.952   0.907   0.927   0.903   0.868   0.866   0.779   0.811   0.788   0.771   0.744   0.754   0.771   0.723   0.741   0.746   0.749   0.728   0.761   0.808   0.795
    85.88    0.997   1.011   0.977   0.923   0.962   0.973   0.967   0.973   0.984   0.958   0.906   0.944   0.885   0.925   0.931   0.932   0.900   0.887   0.867   0.884   0.839   0.778   0.796   0.786   0.774   0.819   0.779   0.741   0.719   0.727   0.721   0.748   0.750   0.776   0.809
    81.76    0.958   1.030   0.985   0.982   0.944   0.955   0.937   0.942   0.899   0.893   0.911   0.920   0.928   0.962   0.983   0.946   0.930   0.989   0.944   0.926   0.913   0.875   0.823   0.850   0.848   0.843   0.807   0.752   0.745   0.740   0.706   0.735   0.752   0.767   0.806
    77.65    1.014   1.050   1.016   0.972   0.943   0.866   0.856   0.849   0.837   0.842   0.875   0.871   0.910   0.941   0.962   0.957   0.971   0.996   0.968   0.941   0.937   0.855   0.880   0.887   0.823   0.809   0.815   0.836   0.795   0.738   0.706   0.737   0.753   0.730   0.734
    73.53    0.994   0.969   0.978   0.993   0.932   0.886   0.868   0.857   0.809   0.803   0.862   0.908   0.945   0.984   0.983   0.970   0.973   0.940   0.925   0.907   0.918   0.904   0.867   0.854   0.839   0.803   0.856   0.858   0.797   0.794   0.745   0.752   0.765   0.735   0.754
    69.41    0.959   0.950   0.947   0.936   0.912   0.886   0.857   0.842   0.830   0.786   0.825   0.863   0.934   0.942   0.980   1.018   0.932   0.922   0.941   0.913   0.953   0.939   0.914   0.896   0.862   0.785   0.856   0.866   0.807   0.782   0.780   0.780   0.727   0.741   0.804
    65.29    0.936   0.920   0.888   0.899   0.870   0.825   0.851   0.792   0.772   0.781   0.820   0.847   0.866   0.893   0.944   0.985   0.963   0.987   0.961   0.905   0.962   0.948   0.939   0.915   0.926   0.835   0.837   0.855   0.815   0.793   0.743   0.768   0.686   0.717   0.779
    61.18    0.894   0.879   0.881   0.870   0.853   0.838   0.841   0.828   0.795   0.793   0.785   0.853   0.873   0.919   0.928   0.977   0.987   0.967   0.927   0.913   0.931   0.956   0.920   0.873   0.926   0.898   0.862   0.823   0.852   0.814   0.772   0.748   0.726   0.728   0.746
    57.06    0.885   0.877   0.827   0.884   0.811   0.852   0.843   0.835   0.780   0.753   0.804   0.837   0.881   0.920   0.893   0.923   0.934   0.943   0.918   0.900   0.931   0.949   0.930   0.870   0.927   0.946   0.875   0.832   0.796   0.823   0.778   0.818   0.804   0.746   0.741
    52.94    0.844   0.804   0.783   0.828   0.863   0.873   0.857   0.817   0.777   0.778   0.787   0.793   0.823   0.848   0.876   0.907   0.889   0.911   0.900   0.908   0.939   0.939   0.950   0.932   0.938   0.946   0.907   0.840   0.884   0.828   0.811   0.857   0.835   0.752   0.725
    48.82    0.831   0.850   0.820   0.814   0.859   0.847   0.853   0.837   0.822   0.812   0.794   0.782   0.808   0.852   0.878   0.921   0.921   0.967   0.967   1.009   0.911   0.929   0.998   0.977   0.981   0.970   0.966   0.919   0.843   0.841   0.842   0.849   0.819   0.775   0.743
    44.71    0.847   0.843   0.834   0.839   0.811   0.810   0.825   0.846   0.883   0.846   0.802   0.804   0.820   0.916   0.934   0.989   0.971   1.029   1.000   0.999   0.933   0.970   1.005   0.975   1.002   0.989   0.898   0.864   0.883   0.814   0.849   0.882   0.835   0.752   0.750
    40.59    0.838   0.863   0.867   0.791   0.780   0.786   0.843   0.910   0.920   0.904   0.914   0.847   0.893   0.926   0.910   0.974   1.013   1.033   0.989   0.998   0.953   0.983   1.006   1.013   0.996   0.965   0.951   0.909   0.909   0.860   0.870   0.899   0.859   0.793   0.816
    36.47    0.826   0.865   0.862   0.790   0.787   0.833   0.809   0.839   0.885   0.925   0.882   0.904   0.895   0.961   0.985   0.983   0.999   0.976   0.962   0.981   0.971   0.982   0.997   1.009   1.030   1.026   1.024   0.993   0.971   0.946   0.944   0.945   0.921   0.861   0.834
    32.35    0.785   0.834   0.803   0.863   0.810   0.830   0.830   0.812   0.884   0.907   0.893   0.918   0.935   0.963   0.982   1.048   0.983   0.943   0.941   0.931   0.985   1.000   1.023   1.019   1.042   1.014   1.011   1.000   0.982   0.961   0.937   0.935   0.901   0.905   0.838
    28.24    0.843   0.812   0.802   0.825   0.851   0.835   0.841   0.907   0.948   0.934   0.933   0.940   0.986   0.980   0.921   0.984   0.978   0.938   0.932   0.881   0.924   0.984   0.978   0.992   0.990   1.027   1.023   0.995   0.997   1.011   1.013   0.929   0.871   0.851   0.842
    24.12    0.832   0.782   0.798   0.841   0.887   0.912   0.889   0.891   0.971   0.927   0.889   0.912   0.924   0.965   0.935   0.970   0.935   0.967   0.977   0.913   0.967   0.971   0.979   0.949   0.987   1.022   0.987   1.029   1.039   1.012   0.998   0.949   0.909   0.900   0.855
    20.00    0.848   0.804   0.797   0.843   0.900   0.928   0.880   0.893   0.929   0.956   0.866   0.869   0.894   0.929   0.931   0.977   0.979   0.963   0.957   0.935   0.959   0.956   0.996   0.995   0.944   0.965   0.947   0.993   1.028   1.046   1.020   0.958   0.940   0.979   0.886

   Height   Standard deviation at grid points for the v component:
   160.00    0.700   0.700   0.700   0.700   0.700   0.700   0.700   0.700   0.700   0.700   0.700   0.700   0.700   0.700   0.700   0.700   0.700   0.700   0.700   0.700   0.700   0.700   0.700   0.700   0.700   0.700   0.700   0.700   0.700   0.700   0.700   0.700   0.700   0.700   0.700
   155.88    0.700   0.700   0.700   0.700   0.700   0.700   0.700   0.700   0.700   0.700   0.700   0.700   0.700   0.700   0.700   0.700   0.700   0.700   0.700   0.700   0.700   0.700   0.700   0.700   0.700   0.700   0.700   0.700   0.700   0.700   0.700   0.700   0.700   0.700   0.700
   151.76    0.700   0.700   0.700   0.700   0.700   0.700   0.700   0.700   0.700   0.700   0.700   0.700   0.700   0.700   0.700   0.700   0.700   0.700   0.700   0.700   0.700   0.700   0.700   0.700   0.700   0.700   0.700   0.700   0.700   0.700   0.700   0.700   0.700   0.700   0.700
   147.65    0.700   0.700   0.700   0.700   0.700   0.700   0.700   0.700   0.700   0.700   0.700   0.700   0.700   0.700   0.700   0.700   0.700   0.700   0.700   0.700   0.700   0.700   0.700   0.700   0.700   0.700   0.700   0.700   0.700   0.700   0.700   0.700   0.700   0.700   0.700
   143.53    0.700   0.700   0.700   0.700   0.700   0.700   0.700   0.700   0.700   0.700   0.700   0.700   0.700   0.700   0.700   0.700   0.700   0.700   0.700   0.700   0.700   0.700   0.700   0.700   0.700   0.700   0.700   0.700   0.700   0.700   0.700   0.700   0.700   0.700   0.700
   139.41    0.700   0.700   0.700   0.700   0.700   0.700   0.700   0.700   0.700   0.700   0.700   0.700   0.700   0.700   0.700   0.700   0.700   0.700   0.700   0.700   0.700   0.700   0.700   0.700   0.700   0.700   0.700   0.700   0.700   0.700   0.700   0.700   0.700   0.700   0.700
   135.29    0.700   0.700   0.700   0.700   0.700   0.700   0.700   0.700   0.700   0.700   0.700   0.700   0.700   0.700   0.700   0.700   0.700   0.700   0.700   0.700   0.700   0.700   0.700   0.700   0.700   0.700   0.700   0.700   0.700   0.700   0.700   0.700   0.700   0.700   0.700
   131.18    0.700   0.700   0.700   0.700   0.700   0.700   0.700   0.700   0.700   0.700   0.700   0.700   0.700   0.700   0.700   0.700   0.700   0.700   0.700   0.700   0.700   0.700   0.700   0.700   0.700   0.700   0.700   0.700   0.700   0.700   0.700   0.700   0.700   0.700   0.700
   127.06    0.700   0.700   0.700   0.700   0.700   0.700   0.700   0.700   0.700   0.700   0.700   0.700   0.700   0.700   0.700   0.700   0.700   0.700   0.700   0.700   0.700   0.700   0.700   0.700   0.700   0.700   0.700   0.700   0.700   0.700   0.700   0.700   0.700   0.700   0.700
   122.94    0.700   0.700   0.700   0.700   0.700   0.700   0.700   0.700   0.700   0.700   0.700   0.700   0.700   0.700   0.700   0.700   0.700   0.700   0.700   0.700   0.700   0.700   0.700   0.700   0.700   0.700   0.700   0.700   0.700   0.700   0.700   0.700   0.700   0.700   0.700
   118.82    0.700   0.700   0.700   0.700   0.700   0.700   0.700   0.700   0.700   0.700   0.700   0.700   0.700   0.700   0.700   0.700   0.700   0.700   0.700   0.700   0.700   0.700   0.700   0.700   0.700   0.700   0.700   0.700   0.700   0.700   0.700   0.700   0.700   0.700   0.700
   114.71    0.700   0.700   0.700   0.700   0.700   0.700   0.700   0.700   0.700   0.700   0.700   0.700   0.700   0.700   0.700   0.700   0.700   0.700   0.700   0.700   0.700   0.700   0.700   0.700   0.700   0.700   0.700   0.700   0.700   0.700   0.700   0.700   0.700   0.700   0.700
   110.59    0.700   0.700   0.700   0.700   0.700   0.700   0.700   0.700   0.700   0.700   0.700   0.700   0.700   0.700   0.700   0.700   0.700   0.700   0.700   0.700   0.700   0.700   0.700   0.700   0.700   0.700   0.700   0.700   0.700   0.700   0.700   0.700   0.700   0.700   0.700
   106.47    0.700   0.700   0.700   0.700   0.700   0.700   0.700   0.700   0.700   0.700   0.700   0.700   0.700   0.700   0.700   0.700   0.700   0.700   0.700   0.700   0.700   0.700   0.700   0.700   0.700   0.700   0.700   0.700   0.700   0.700   0.700   0.700   0.700   0.700   0.700
   102.35    0.700   0.700   0.700   0.700   0.700   0.700   0.700   0.700   0.700   0.700   0.700   0.700   0.700   0.700   0.700   0.700   0.700   0.700   0.700   0.700   0.700   0.700   0.700   0.700   0.700   0.700   0.700   0.700   0.700   0.700   0.700   0.700   0.700   0.700   0.700
    98.24    0.700   0.700   0.700   0.700   0.700   0.700   0.700   0.700   0.700   0.700   0.700   0.700   0.700   0.700   0.700   0.700   0.700   0.700   0.700   0.700   0.700   0.700   0.700   0.700   0.700   0.700   0.700   0.700   0.700   0.700   0.700   0.700   0.700   0.700   0.700
    94.12    0.700   0.700   0.700   0.700   0.700   0.700   0.700   0.700   0.700   0.700   0.700   0.700   0.700   0.700   0.700   0.700   0.700   0.700   0.700   0.700   0.700   0.700   0.700   0.700   0.700   0.700   0.700   0.700   0.700   0.700   0.700   0.700   0.700   0.700   0.700
    90.00    0.700   0.700   0.700   0.700   0.700   0.700   0.700   0.700   0.700   0.700   0.700   0.700   0.700   0.700   0.700   0.700   0.700   0.700   0.700   0.700   0.700   0.700   0.700   0.700   0.700   0.700   0.700   0.700   0.700   0.700   0.700   0.700   0.700   0.700   0.700
    85.88    0.700   0.700   0.700   0.700   0.700   0.700   0.700   0.700   0.700   0.700   0.700   0.700   0.700   0.700   0.700   0.700   0.700   0.700   0.700   0.700   0.700   0.700   0.700   0.700   0.700   0.700   0.700   0.700   0.700   0.700   0.700   0.700   0.700   0.700   0.700
    81.76    0.700   0.700   0.700   0.700   0.700   0.700   0.700   0.700   0.700   0.700   0.700   0.700   0.700   0.700   0.700   0.700   0.700   0.700   0.700   0.700   0.700   0.700   0.700   0.700   0.700   0.700   0.700   0.700   0.700   0.700   0.700   0.700   0.700   0.700   0.700
    77.65    0.700   0.700   0.700   0.700   0.700   0.700   0.700   0.700   0.700   0.700   0.700   0.700   0.700   0.700   0.700   0.700   0.700   0.700   0.700   0.700   0.700   0.700   0.700   0.700   0.700   0.700   0.700   0.700   0.700   0.700   0.700   0.700   0.700   0.700   0.700
    73.53    0.700   0.700   0.700   0.700   0.700   0.700   0.700   0.700   0.700   0.700   0.700   0.700   0.700   0.700   0.700   0.700   0.700   0.700   0.700   0.700   0.700   0.700   0.700   0.700   0.700   0.700   0.700   0.700   0.700   0.700   0.700   0.700   0.700   0.700   0.700
    69.41    0.700   0.700   0.700   0.700   0.700   0.700   0.700   0.700   0.700   0.700   0.700   0.700   0.700   0.700   0.700   0.700   0.700   0.700   0.700   0.700   0.700   0.700   0.700   0.700   0.700   0.700   0.700   0.700   0.700   0.700   0.700   0.700   0.700   0.700   0.700
    65.29    0.700   0.700   0.700   0.700   0.700   0.700   0.700   0.700   0.700   0.700   0.700   0.700   0.700   0.700   0.700   0.700   0.700   0.700   0.700   0.700   0.700   0.700   0.700   0.700   0.700   0.700   0.700   0.700   0.700   0.700   0.700   0.700   0.700   0.700   0.700
    61.18    0.700   0.700   0.700   0.700   0.700   0.700   0.700   0.700   0.700   0.700   0.700   0.700   0.700   0.700   0.700   0.700   0.700   0.700   0.700   0.700   0.700   0.700   0.700   0.700   0.700   0.700   0.700   0.700   0.700   0.700   0.700   0.700   0.700   0.700   0.700
    57.06    0.700   0.700   0.700   0.700   0.700   0.700   0.700   0.700   0.700   0.700   0.700   0.700   0.700   0.700   0.700   0.700   0.700   0.700   0.700   0.700   0.700   0.700   0.700   0.700   0.700   0.700   0.700   0.700   0.700   0.700   0.700   0.700   0.700   0.700   0.700
    52.94    0.700   0.700   0.700   0.700   0.700   0.700   0.700   0.700   0.700   0.700   0.700   0.700   0.700   0.700   0.700   0.700   0.700   0.700   0.700   0.700   0.700   0.700   0.700   0.700   0.700   0.700   0.700   0.700   0.700   0.700   0.700   0.700   0.700   0.700   0.700
    48.82    0.700   0.700   0.700   0.700   0.700   0.700   0.700   0.700   0.700   0.700   0.700   0.700   0.700   0.700   0.700   0.700   0.700   0.700   0.700   0.700   0.700   0.700   0.700   0.700   0.700   0.700   0.700   0.700   0.700   0.700   0.700   0.700   0.700   0.700   0.700
    44.71    0.700   0.700   0.700   0.700   0.700   0.700   0.700   0.700   0.700   0.700   0.700   0.700   0.700   0.700   0.700   0.700   0.700   0.700   0.700   0.700   0.700   0.700   0.700   0.700   0.700   0.700   0.700   0.700   0.700   0.700   0.700   0.700   0.700   0.700   0.700
    40.59    0.700   0.700   0.700   0.700   0.700   0.700   0.700   0.700   0.700   0.700   0.700   0.700   0.700   0.700   0.700   0.700   0.700   0.700   0.700   0.700   0.700   0.700   0.700   0.700   0.700   0.700   0.700   0.700   0.700   0.700   0.700   0.700   0.700   0.700   0.700
    36.47    0.700   0.700   0.700   0.700   0.700   0.700   0.700   0.700   0.700   0.700   0.700   0.700   0.700   0.700   0.700   0.700   0.700   0.700   0.700   0.700   0.700   0.700   0.700   0.700   0.700   0.700   0.700   0.700   0.700   0.700   0.700   0.700   0.700   0.700   0.700
    32.35    0.700   0.700   0.700   0.700   0.700   0.700   0.700   0.700   0.700   0.700   0.700   0.700   0.700   0.700   0.700   0.700   0.700   0.700   0.700   0.700   0.700   0.700   0.700   0.700   0.700   0.700   0.700   0.700   0.700   0.700   0.700   0.700   0.700   0.700   0.700
    28.24    0.700   0.700   0.700   0.700   0.700   0.700   0.700   0.700   0.700   0.700   0.700   0.700   0.700   0.700   0.700   0.700   0.700   0.700   0.700   0.700   0.700   0.700   0.700   0.700   0.700   0.700   0.700   0.700   0.700   0.700   0.700   0.700   0.700   0.700   0.700
    24.12    0.700   0.700   0.700   0.700   0.700   0.700   0.700   0.700   0.700   0.700   0.700   0.700   0.700   0.700   0.700   0.700   0.700   0.700   0.700   0.700   0.700   0.700   0.700   0.700   0.700   0.700   0.700   0.700   0.700   0.700   0.700   0.700   0.700   0.700   0.700
    20.00    0.700   0.700   0.700   0.700   0.700   0.700   0.700   0.700   0.700   0.700   0.700   0.700   0.700   0.700   0.700   0.700   0.700   0.700   0.700   0.700   0.700   0.700   0.700   0.700   0.700   0.700   0.700   0.700   0.700   0.700   0.700   0.700   0.700   0.700   0.700

   Height   Standard deviation at grid points for the w component:
   160.00    0.437   0.437   0.437   0.437   0.437   0.437   0.437   0.437   0.437   0.437   0.437   0.437   0.437   0.437   0.437   0.437   0.437   0.437   0.437   0.437   0.437   0.437   0.437   0.437   0.437   0.437   0.437   0.437   0.437   0.437   0.437   0.437   0.437   0.437   0.437
   155.88    0.437   0.437   0.437   0.437   0.437   0.437   0.437   0.437   0.437   0.437   0.437   0.437   0.437   0.437   0.437   0.437   0.437   0.437   0.437   0.437   0.437   0.437   0.437   0.437   0.437   0.437   0.437   0.437   0.437   0.437   0.437   0.437   0.437   0.437   0.437
   151.76    0.437   0.437   0.437   0.437   0.437   0.437   0.437   0.437   0.437   0.437   0.437   0.437   0.437   0.437   0.437   0.437   0.437   0.437   0.437   0.437   0.437   0.437   0.437   0.437   0.437   0.437   0.437   0.437   0.437   0.437   0.437   0.437   0.437   0.437   0.437
   147.65    0.437   0.437   0.437   0.437   0.437   0.437   0.437   0.437   0.437   0.437   0.437   0.437   0.437   0.437   0.437   0.437   0.437   0.437   0.437   0.437   0.437   0.437   0.437   0.437   0.437   0.437   0.437   0.437   0.437   0.437   0.437   0.437   0.437   0.437   0.437
   143.53    0.437   0.437   0.437   0.437   0.437   0.437   0.437   0.437   0.437   0.437   0.437   0.437   0.437   0.437   0.437   0.437   0.437   0.437   0.437   0.437   0.437   0.437   0.437   0.437   0.437   0.437   0.437   0.437   0.437   0.437   0.437   0.437   0.437   0.437   0.437
   139.41    0.437   0.437   0.437   0.437   0.437   0.437   0.437   0.437   0.437   0.437   0.437   0.437   0.437   0.437   0.437   0.437   0.437   0.437   0.437   0.437   0.437   0.437   0.437   0.437   0.437   0.437   0.437   0.437   0.437   0.437   0.437   0.437   0.437   0.437   0.437
   135.29    0.437   0.437   0.437   0.437   0.437   0.437   0.437   0.437   0.437   0.437   0.437   0.437   0.437   0.437   0.437   0.437   0.437   0.437   0.437   0.437   0.437   0.437   0.437   0.437   0.437   0.437   0.437   0.437   0.437   0.437   0.437   0.437   0.437   0.437   0.437
   131.18    0.437   0.437   0.437   0.437   0.437   0.437   0.437   0.437   0.437   0.437   0.437   0.437   0.437   0.437   0.437   0.437   0.437   0.437   0.437   0.437   0.437   0.437   0.437   0.437   0.437   0.437   0.437   0.437   0.437   0.437   0.437   0.437   0.437   0.437   0.437
   127.06    0.437   0.437   0.437   0.437   0.437   0.437   0.437   0.437   0.437   0.437   0.437   0.437   0.437   0.437   0.437   0.437   0.437   0.437   0.437   0.437   0.437   0.437   0.437   0.437   0.437   0.437   0.437   0.437   0.437   0.437   0.437   0.437   0.437   0.437   0.437
   122.94    0.437   0.437   0.437   0.437   0.437   0.437   0.437   0.437   0.437   0.437   0.437   0.437   0.437   0.437   0.437   0.437   0.437   0.437   0.437   0.437   0.437   0.437   0.437   0.437   0.437   0.437   0.437   0.437   0.437   0.437   0.437   0.437   0.437   0.437   0.437
   118.82    0.437   0.437   0.437   0.437   0.437   0.437   0.437   0.437   0.437   0.437   0.437   0.437   0.437   0.437   0.437   0.437   0.437   0.437   0.437   0.437   0.437   0.437   0.437   0.437   0.437   0.437   0.437   0.437   0.437   0.437   0.437   0.437   0.437   0.437   0.437
   114.71    0.437   0.437   0.437   0.437   0.437   0.437   0.437   0.437   0.437   0.437   0.437   0.437   0.437   0.437   0.437   0.437   0.437   0.437   0.437   0.437   0.437   0.437   0.437   0.437   0.437   0.437   0.437   0.437   0.437   0.437   0.437   0.437   0.437   0.437   0.437
   110.59    0.437   0.437   0.437   0.437   0.437   0.437   0.437   0.437   0.437   0.437   0.437   0.437   0.437   0.437   0.437   0.437   0.437   0.437   0.437   0.437   0.437   0.437   0.437   0.437   0.437   0.437   0.437   0.437   0.437   0.437   0.437   0.437   0.437   0.437   0.437
   106.47    0.437   0.437   0.437   0.437   0.437   0.437   0.437   0.437   0.437   0.437   0.437   0.437   0.437   0.437   0.437   0.437   0.437   0.437   0.437   0.437   0.437   0.437   0.437   0.437   0.437   0.437   0.437   0.437   0.437   0.437   0.437   0.437   0.437   0.437   0.437
   102.35    0.437   0.437   0.437   0.437   0.437   0.437   0.437   0.437   0.437   0.437   0.437   0.437   0.437   0.437   0.437   0.437   0.437   0.437   0.437   0.437   0.437   0.437   0.437   0.437   0.437   0.437   0.437   0.437   0.437   0.437   0.437   0.437   0.437   0.437   0.437
    98.24    0.437   0.437   0.437   0.437   0.437   0.437   0.437   0.437   0.437   0.437   0.437   0.437   0.437   0.437   0.437   0.437   0.437   0.437   0.437   0.437   0.437   0.437   0.437   0.437   0.437   0.437   0.437   0.437   0.437   0.437   0.437   0.437   0.437   0.437   0.437
    94.12    0.437   0.437   0.437   0.437   0.437   0.437   0.437   0.437   0.437   0.437   0.437   0.437   0.437   0.437   0.437   0.437   0.437   0.437   0.437   0.437   0.437   0.437   0.437   0.437   0.437   0.437   0.437   0.437   0.437   0.437   0.437   0.437   0.437   0.437   0.437
    90.00    0.437   0.437   0.437   0.437   0.437   0.437   0.437   0.437   0.437   0.437   0.437   0.437   0.437   0.437   0.437   0.437   0.437   0.437   0.437   0.437   0.437   0.437   0.437   0.437   0.437   0.437   0.437   0.437   0.437   0.437   0.437   0.437   0.437   0.437   0.437
    85.88    0.437   0.437   0.437   0.437   0.437   0.437   0.437   0.437   0.437   0.437   0.437   0.437   0.437   0.437   0.437   0.437   0.437   0.437   0.437   0.437   0.437   0.437   0.437   0.437   0.437   0.437   0.437   0.437   0.437   0.437   0.437   0.437   0.437   0.437   0.437
    81.76    0.437   0.437   0.437   0.437   0.437   0.437   0.437   0.437   0.437   0.437   0.437   0.437   0.437   0.437   0.437   0.437   0.437   0.437   0.437   0.437   0.437   0.437   0.437   0.437   0.437   0.437   0.437   0.437   0.437   0.437   0.437   0.437   0.437   0.437   0.437
    77.65    0.437   0.437   0.437   0.437   0.437   0.437   0.437   0.437   0.437   0.437   0.437   0.437   0.437   0.437   0.437   0.437   0.437   0.437   0.437   0.437   0.437   0.437   0.437   0.437   0.437   0.437   0.437   0.437   0.437   0.437   0.437   0.437   0.437   0.437   0.437
    73.53    0.437   0.437   0.437   0.437   0.437   0.437   0.437   0.437   0.437   0.437   0.437   0.437   0.437   0.437   0.437   0.437   0.437   0.437   0.437   0.437   0.437   0.437   0.437   0.437   0.437   0.437   0.437   0.437   0.437   0.437   0.437   0.437   0.437   0.437   0.437
    69.41    0.437   0.437   0.437   0.437   0.437   0.437   0.437   0.437   0.437   0.437   0.437   0.437   0.437   0.437   0.437   0.437   0.437   0.437   0.437   0.437   0.437   0.437   0.437   0.437   0.437   0.437   0.437   0.437   0.437   0.437   0.437   0.437   0.437   0.437   0.437
    65.29    0.437   0.437   0.437   0.437   0.437   0.437   0.437   0.437   0.437   0.437   0.437   0.437   0.437   0.437   0.437   0.437   0.437   0.437   0.437   0.437   0.437   0.437   0.437   0.437   0.437   0.437   0.437   0.437   0.437   0.437   0.437   0.437   0.437   0.437   0.437
    61.18    0.437   0.437   0.437   0.437   0.437   0.437   0.437   0.437   0.437   0.437   0.437   0.437   0.437   0.437   0.437   0.437   0.437   0.437   0.437   0.437   0.437   0.437   0.437   0.437   0.437   0.437   0.437   0.437   0.437   0.437   0.437   0.437   0.437   0.437   0.437
    57.06    0.437   0.437   0.437   0.437   0.437   0.437   0.437   0.437   0.437   0.437   0.437   0.437   0.437   0.437   0.437   0.437   0.437   0.437   0.437   0.437   0.437   0.437   0.437   0.437   0.437   0.437   0.437   0.437   0.437   0.437   0.437   0.437   0.437   0.437   0.437
    52.94    0.437   0.437   0.437   0.437   0.437   0.437   0.437   0.437   0.437   0.437   0.437   0.437   0.437   0.437   0.437   0.437   0.437   0.437   0.437   0.437   0.437   0.437   0.437   0.437   0.437   0.437   0.437   0.437   0.437   0.437   0.437   0.437   0.437   0.437   0.437
    48.82    0.437   0.437   0.437   0.437   0.437   0.437   0.437   0.437   0.437   0.437   0.437   0.437   0.437   0.437   0.437   0.437   0.437   0.437   0.437   0.437   0.437   0.437   0.437   0.437   0.437   0.437   0.437   0.437   0.437   0.437   0.437   0.437   0.437   0.437   0.437
    44.71    0.437   0.437   0.437   0.437   0.437   0.437   0.437   0.437   0.437   0.437   0.437   0.437   0.437   0.437   0.437   0.437   0.437   0.437   0.437   0.437   0.437   0.437   0.437   0.437   0.437   0.437   0.437   0.437   0.437   0.437   0.437   0.437   0.437   0.437   0.437
    40.59    0.437   0.437   0.437   0.437   0.437   0.437   0.437   0.437   0.437   0.437   0.437   0.437   0.437   0.437   0.437   0.437   0.437   0.437   0.437   0.437   0.437   0.437   0.437   0.437   0.437   0.437   0.437   0.437   0.437   0.437   0.437   0.437   0.437   0.437   0.437
    36.47    0.437   0.437   0.437   0.437   0.437   0.437   0.437   0.437   0.437   0.437   0.437   0.437   0.437   0.437   0.437   0.437   0.437   0.437   0.437   0.437   0.437   0.437   0.437   0.437   0.437   0.437   0.437   0.437   0.437   0.437   0.437   0.437   0.437   0.437   0.437
    32.35    0.437   0.437   0.437   0.437   0.437   0.437   0.437   0.437   0.437   0.437   0.437   0.437   0.437   0.437   0.437   0.437   0.437   0.437   0.437   0.437   0.437   0.437   0.437   0.437   0.437   0.437   0.437   0.437   0.437   0.437   0.437   0.437   0.437   0.437   0.437
    28.24    0.437   0.437   0.437   0.437   0.437   0.437   0.437   0.437   0.437   0.437   0.437   0.437   0.437   0.437   0.437   0.437   0.437   0.437   0.437   0.437   0.437   0.437   0.437   0.437   0.437   0.437   0.437   0.437   0.437   0.437   0.437   0.437   0.437   0.437   0.437
    24.12    0.437   0.437   0.437   0.437   0.437   0.437   0.437   0.437   0.437   0.437   0.437   0.437   0.437   0.437   0.437   0.437   0.437   0.437   0.437   0.437   0.437   0.437   0.437   0.437   0.437   0.437   0.437   0.437   0.437   0.437   0.437   0.437   0.437   0.437   0.437
    20.00    0.437   0.437   0.437   0.437   0.437   0.437   0.437   0.437   0.437   0.437   0.437   0.437   0.437   0.437   0.437   0.437   0.437   0.437   0.437   0.437   0.437   0.437   0.437   0.437   0.437   0.437   0.437   0.437   0.437   0.437   0.437   0.437   0.437   0.437   0.437

   Mean standard deviation across all grid points:
      u component:    0.874 m/s
      v component:    0.700 m/s
      w component:    0.437 m/s


U-component (X) statistics from the interpolated hub point:

   Mean =   9.0000 m/s
   TI   =  10.0323 %


Processing complete.  62.328 CPU seconds used.
