
This summary file was generated by TurbSim (v2.00.07a-bjj, 14-Jun-2016) on 04-Dec-2023 at 14:00:06.


ERROR:  ReadInputFile:OpenFInpFile:The input file, "..\90m_12mps_twr.inp", was not found.

ABORTING PROGRAM.
